This file contains any messages produced by compilers while
running configure, to aid debugging if configure makes a mistake.

It was created by Specfem3D configure 4.0.0, which was
generated by GNU Autoconf 2.71.  Invocation command line was

  $ ./configure FC=ftn GCC=cc MPIFC=ftn 'FCFLAGS=-g -O3 -fallow-argument-mismatch'

## --------- ##
## Platform. ##
## --------- ##

hostname = kay
uname -m = x86_64
uname -r = 5.3.18-150300.59.60_7.0.4.13-cray_ari_s
uname -s = Linux
uname -v = #1 SMP Fri Sep 16 09:49:21 UTC 2022 (c19daca)

/usr/bin/uname -p = x86_64
/bin/uname -X     = unknown

/bin/arch              = x86_64
/usr/bin/arch -k       = unknown
/usr/convex/getsysinfo = unknown
/usr/bin/hostinfo      = unknown
/bin/machine           = unknown
/usr/bin/oslevel       = unknown
/bin/universe          = unknown

PATH: /opt/cray/pe/perftools/22.09.0/bin/
PATH: /opt/cray/pe/papi/6.0.0.16/bin/
PATH: /opt/cray/rca/2.2.22-7.0.4.1_2.1__ged51428.ari/bin/
PATH: /opt/cray/pe/mpt/7.7.20/gni/mpich-gnu/8.2/bin/
PATH: /opt/gcc/12.1.0/bin/
PATH: /opt/cray/pe/craype/2.7.21.6/bin/
PATH: /opt/cray/cfgutils/bin/
PATH: /opt/cray/nodehealth/5.6.32-7.0.4.1_2.1__g66010cb.ari/bin/
PATH: /opt/cray/llm/21.4.635-7.0.4.1_2.1__g33a55bc.ari/bin/
PATH: /opt/cray/sdb/3.3.821-7.0.4.1_2.1__g8c59c9d.ari/bin/
PATH: /opt/cray/nodestat/2.3.89-7.0.4.1_2.1__g8645157.ari/bin/
PATH: /opt/cray/alps/6.6.67-7.0.4.1_2.1__gb91cd181.ari/sbin/
PATH: /opt/cray/alps/6.6.67-7.0.4.1_2.1__gb91cd181.ari/bin/
PATH: /opt/cray/alps/default/bin/
PATH: /home/users/smehta/bin/
PATH: /usr/local/bin/
PATH: /usr/bin/
PATH: /bin/
PATH: /usr/lib/mit/bin/
PATH: /usr/lib/mit/sbin/
PATH: /opt/pbs/bin/
PATH: /opt/cray/pe/bin/


## ----------- ##
## Core tests. ##
## ----------- ##

configure:2895: looking for aux files: config.guess config.sub
configure:2908:  trying ./
configure:2937:   ./config.guess found
configure:2937:   ./config.sub found
configure:3201: checking build system type
configure:3216: result: x86_64-unknown-linux-gnu
configure:3236: checking host system type
configure:3250: result: x86_64-unknown-linux-gnu
configure:3856: checking for Fortran compiler version
configure:3865: ftn --version >&5
GNU Fortran (GCC) 12.1.0 20220506 (HPE)
Copyright (C) 2022 Free Software Foundation, Inc.
This is free software; see the source for copying conditions.  There is NO
warranty; not even for MERCHANTABILITY or FITNESS FOR A PARTICULAR PURPOSE.

configure:3876: $? = 0
configure:3865: ftn -v >&5
Using built-in specs.
COLLECT_GCC=/opt/gcc/12.1.0/bin/../snos/bin/gfortran
COLLECT_LTO_WRAPPER=/opt/gcc/12.1.0/snos/libexec/gcc/x86_64-suse-linux/12.1.0/lto-wrapper
Target: x86_64-suse-linux
Configured with: ../cray-gcc-12.1.0-202211021830.d2288ea063c1a/configure --prefix=/opt/gcc/12.1.0/snos --disable-nls --libdir=/opt/gcc/12.1.0/snos/lib --enable-languages=c,c++,fortran --with-gxx-include-dir=/opt/gcc/12.1.0/snos/include/g++ --with-slibdir=/opt/gcc/12.1.0/snos/lib --with-system-zlib --enable-shared --enable-__cxa_atexit --build=x86_64-suse-linux --with-ppl --with-cloog --disable-multilib
Thread model: posix
Supported LTO compression algorithms: zlib
gcc version 12.1.0 20220506 (HPE) (GCC) 
configure:3876: $? = 0
configure:3865: ftn -V >&5
gfortran: error: unrecognized command-line option '-V'
gfortran: fatal error: no input files
compilation terminated.
configure:3876: $? = 1
configure:3865: ftn -qversion >&5
gfortran: error: unrecognized command-line option '-qversion'; did you mean '--version'?
gfortran: fatal error: no input files
compilation terminated.
configure:3876: $? = 1
configure:3891: checking whether the Fortran compiler works
configure:3913: ftn -g -O3 -fallow-argument-mismatch   conftest.f  >&5
WARNING: PerfTools is saving object files from a temporary directory into directory '/home/users/smehta/.craypat/a.out/29240'
configure:3917: $? = 0
configure:3967: result: yes
configure:3970: checking for Fortran compiler default output file name
configure:3972: result: a.out
configure:3978: checking for suffix of executables
configure:3985: ftn -o conftest -g -O3 -fallow-argument-mismatch   conftest.f  >&5
WARNING: PerfTools is saving object files from a temporary directory into directory '/home/users/smehta/.craypat/conftest/29291'
configure:3989: $? = 0
configure:4012: result: 
configure:4028: checking whether we are cross compiling
configure:4036: ftn -o conftest -g -O3 -fallow-argument-mismatch   conftest.f  >&5
WARNING: PerfTools is saving object files from a temporary directory into directory '/home/users/smehta/.craypat/conftest/29340'
configure:4040: $? = 0
configure:4047: ./conftest
configure:4051: $? = 0
configure:4066: result: no
configure:4071: checking for suffix of object files
configure:4088: ftn -c -g -O3 -fallow-argument-mismatch  conftest.f >&5
configure:4092: $? = 0
configure:4114: result: o
configure:4122: checking whether the compiler supports GNU Fortran
configure:4136: ftn -c -g -O3 -fallow-argument-mismatch  conftest.F >&5
configure:4136: $? = 0
configure:4146: result: yes
configure:4154: checking whether ftn accepts -g
configure:4166: ftn -c -g  conftest.f >&5
configure:4166: $? = 0
configure:4175: result: yes
configure:4214: running /bin/sh ./flags.guess
configure:4225: checking how to get verbose linking output from ftn
configure:4236: ftn -c -g -O3 -fallow-argument-mismatch  conftest.f >&5
configure:4236: $? = 0
configure:4255: ftn -o conftest -g -O3 -fallow-argument-mismatch -v conftest.f
Using built-in specs.
Target: x86_64-suse-linux
Thread model: posix
Supported LTO compression algorithms: zlib
gcc version 12.1.0 20220506 (HPE) (GCC) 
 /opt/gcc/12.1.0/snos/libexec/gcc/x86_64-suse-linux/12.1.0/f951 conftest.f -ffixed-form -I /opt/cray/pe/perftools/22.09.0/include -I /opt/cray/pe/mpt/7.7.20/gni/mpich-gnu/8.2/include -I /opt/cray/pe/libsci/22.05.1/GNU/8.1/x86_64/include -I /opt/cray/rca/2.2.22-7.0.4.1_2.1__ged51428.ari/include -I /opt/cray/pe/pmi/5.0.17.1/include -I /opt/cray/xpmem/default/include -I /opt/cray/gni-headers/default/include -I /opt/cray/ugni/default/include -I /opt/cray/udreg/default/include -I /opt/cray/alps/6.6.67-7.0.4.1_2.1__gb91cd181.ari/include -I /opt/cray/pe/atp/3.14.13/include -I /opt/cray/wlm_detect/1.3.3-7.0.4.1_2.1__g7109084.ari/include -I /opt/cray/krca/2.2.8-7.0.4.1_2.1__g59af36e.ari/include -I /opt/cray-hss-devel/9.0.0/include -quiet -dumpbase conftest.f -dumpbase-ext .f -march=skylake-avx512 -mno-omit-leaf-frame-pointer -gpubnames -g -O3 -version -fallow-argument-mismatch -fno-backtrace -fno-omit-frame-pointer -fno-optimize-sibling-calls -fintrinsic-modules-path /opt/gcc/12.1.0/snos/lib/gcc/x86_64-suse-linux/12.1.0/finclude -fpre-include=/usr/include/finclude/math-vector-fortran.h -o /lus/scratch/tmp/cck9ZIzC.s
GNU Fortran (GCC) version 12.1.0 20220506 (HPE) (x86_64-suse-linux)
	compiled by GNU C version 12.1.0 20220506 (HPE), GMP version 6.0.0, MPFR version 3.1.3, MPC version 1.0.3, isl version isl-0.15-GMP

GGC heuristics: --param ggc-min-expand=100 --param ggc-min-heapsize=131072
GNU Fortran2008 (GCC) version 12.1.0 20220506 (HPE) (x86_64-suse-linux)
	compiled by GNU C version 12.1.0 20220506 (HPE), GMP version 6.0.0, MPFR version 3.1.3, MPC version 1.0.3, isl version isl-0.15-GMP

GGC heuristics: --param ggc-min-expand=100 --param ggc-min-heapsize=131072
 as -v -I /opt/cray/pe/perftools/22.09.0/include -I /opt/cray/pe/mpt/7.7.20/gni/mpich-gnu/8.2/include -I /opt/cray/pe/libsci/22.05.1/GNU/8.1/x86_64/include -I /opt/cray/rca/2.2.22-7.0.4.1_2.1__ged51428.ari/include -I /opt/cray/pe/pmi/5.0.17.1/include -I /opt/cray/xpmem/default/include -I /opt/cray/gni-headers/default/include -I /opt/cray/ugni/default/include -I /opt/cray/udreg/default/include -I /opt/cray/alps/6.6.67-7.0.4.1_2.1__gb91cd181.ari/include -I /opt/cray/pe/atp/3.14.13/include -I /opt/cray/wlm_detect/1.3.3-7.0.4.1_2.1__g7109084.ari/include -I /opt/cray/krca/2.2.8-7.0.4.1_2.1__g59af36e.ari/include -I /opt/cray-hss-devel/9.0.0/include --gdwarf-5 --64 -o /lus/scratch/tmp/ccW81UhC.o /lus/scratch/tmp/cck9ZIzC.s
GNU assembler version 2.37 (x86_64-suse-linux) using BFD version (GNU Binutils; SUSE Linux Enterprise 15) 2.37.20211103-150100.7.37
Reading specs from /opt/gcc/12.1.0/snos/lib/gcc/x86_64-suse-linux/12.1.0/../../../../lib64/libgfortran.spec
rename spec lib to liborig
 /opt/gcc/12.1.0/snos/libexec/gcc/x86_64-suse-linux/12.1.0/collect2 -plugin /opt/gcc/12.1.0/snos/libexec/gcc/x86_64-suse-linux/12.1.0/liblto_plugin.so -plugin-opt=/opt/gcc/12.1.0/snos/libexec/gcc/x86_64-suse-linux/12.1.0/lto-wrapper -plugin-opt=-fresolution=/lus/scratch/tmp/ccNnNWsy.res -plugin-opt=-pass-through=-lgcc_s -plugin-opt=-pass-through=-lgcc -plugin-opt=-pass-through=-lquadmath -plugin-opt=-pass-through=-lm -plugin-opt=-pass-through=-lgcc_s -plugin-opt=-pass-through=-lgcc -plugin-opt=-pass-through=-lc -plugin-opt=-pass-through=-lgcc_s -plugin-opt=-pass-through=-lgcc --eh-frame-hdr -m elf_x86_64 -dynamic-linker /lib64/ld-linux-x86-64.so.2 -o conftest /usr/lib/../lib64/crt1.o /usr/lib/../lib64/crti.o /opt/gcc/12.1.0/snos/lib/gcc/x86_64-suse-linux/12.1.0/crtbegin.o -L/opt/cray/pe/perftools/22.09.0/lib64 -L/opt/cray/dmapp/default/lib64 -L/opt/cray/pe/mpt/7.7.20/gni/mpich-gnu/8.2/lib -L/opt/cray/dmapp/default/lib64 -L/opt/cray/pe/mpt/7.7.20/gni/mpich-gnu/8.2/lib -L/opt/cray/pe/libsci/22.05.1/GNU/8.1/x86_64/lib -L/opt/cray/rca/2.2.22-7.0.4.1_2.1__ged51428.ari/lib64 -L/opt/cray/pe/atp/3.14.13/lib -L/opt/cray/pe/perftools/22.09.0/libexec64 -L/opt/gcc/12.1.0/snos/lib/gcc/x86_64-suse-linux/12.1.0 -L/opt/gcc/12.1.0/snos/lib/gcc/x86_64-suse-linux/12.1.0/../../../../lib64 -L/lib/../lib64 -L/usr/lib/../lib64 -L/opt/gcc/12.1.0/snos/lib/gcc/x86_64-suse-linux/12.1.0/../../.. /lus/scratch/tmp/ccW81UhC.o -rpath=/opt/cray/pe/gcc-libs -Bdynamic -lrca -lAtpSigHandler -rpath /opt/cray/pe/atp/3.14.13/lib --undefined=__libAtpSigHandler_ctor --as-needed -lsci_gnu_82_mpi --no-as-needed --as-needed -lsci_gnu_82 --no-as-needed --as-needed -lmpich_gnu_82 --no-as-needed --as-needed -lmpichf90_gnu_82 --no-as-needed --as-needed -lgfortran -lquadmath --no-as-needed --as-needed -lpthread --no-as-needed --disable-new-dtags -lgfortran -lm -lgcc_s -lgcc -lquadmath -lm -lgcc_s -lgcc -lc -lgcc_s -lgcc /opt/gcc/12.1.0/snos/lib/gcc/x86_64-suse-linux/12.1.0/crtend.o /usr/lib/../lib64/crtn.o
WARNING: PerfTools is saving object files from a temporary directory into directory '/home/users/smehta/.craypat/conftest/29474'
configure:4338: result: -v
configure:4340: checking for Fortran libraries of ftn
configure:4364: ftn -o conftest -g -O3 -fallow-argument-mismatch -v conftest.f
Using built-in specs.
Target: x86_64-suse-linux
Thread model: posix
Supported LTO compression algorithms: zlib
gcc version 12.1.0 20220506 (HPE) (GCC) 
 /opt/gcc/12.1.0/snos/libexec/gcc/x86_64-suse-linux/12.1.0/f951 conftest.f -ffixed-form -I /opt/cray/pe/perftools/22.09.0/include -I /opt/cray/pe/mpt/7.7.20/gni/mpich-gnu/8.2/include -I /opt/cray/pe/libsci/22.05.1/GNU/8.1/x86_64/include -I /opt/cray/rca/2.2.22-7.0.4.1_2.1__ged51428.ari/include -I /opt/cray/pe/pmi/5.0.17.1/include -I /opt/cray/xpmem/default/include -I /opt/cray/gni-headers/default/include -I /opt/cray/ugni/default/include -I /opt/cray/udreg/default/include -I /opt/cray/alps/6.6.67-7.0.4.1_2.1__gb91cd181.ari/include -I /opt/cray/pe/atp/3.14.13/include -I /opt/cray/wlm_detect/1.3.3-7.0.4.1_2.1__g7109084.ari/include -I /opt/cray/krca/2.2.8-7.0.4.1_2.1__g59af36e.ari/include -I /opt/cray-hss-devel/9.0.0/include -quiet -dumpbase conftest.f -dumpbase-ext .f -march=skylake-avx512 -mno-omit-leaf-frame-pointer -gpubnames -g -O3 -version -fallow-argument-mismatch -fno-backtrace -fno-omit-frame-pointer -fno-optimize-sibling-calls -fintrinsic-modules-path /opt/gcc/12.1.0/snos/lib/gcc/x86_64-suse-linux/12.1.0/finclude -fpre-include=/usr/include/finclude/math-vector-fortran.h -o /lus/scratch/tmp/ccWOpWcB.s
GNU Fortran (GCC) version 12.1.0 20220506 (HPE) (x86_64-suse-linux)
	compiled by GNU C version 12.1.0 20220506 (HPE), GMP version 6.0.0, MPFR version 3.1.3, MPC version 1.0.3, isl version isl-0.15-GMP

GGC heuristics: --param ggc-min-expand=100 --param ggc-min-heapsize=131072
GNU Fortran2008 (GCC) version 12.1.0 20220506 (HPE) (x86_64-suse-linux)
	compiled by GNU C version 12.1.0 20220506 (HPE), GMP version 6.0.0, MPFR version 3.1.3, MPC version 1.0.3, isl version isl-0.15-GMP

GGC heuristics: --param ggc-min-expand=100 --param ggc-min-heapsize=131072
 as -v -I /opt/cray/pe/perftools/22.09.0/include -I /opt/cray/pe/mpt/7.7.20/gni/mpich-gnu/8.2/include -I /opt/cray/pe/libsci/22.05.1/GNU/8.1/x86_64/include -I /opt/cray/rca/2.2.22-7.0.4.1_2.1__ged51428.ari/include -I /opt/cray/pe/pmi/5.0.17.1/include -I /opt/cray/xpmem/default/include -I /opt/cray/gni-headers/default/include -I /opt/cray/ugni/default/include -I /opt/cray/udreg/default/include -I /opt/cray/alps/6.6.67-7.0.4.1_2.1__gb91cd181.ari/include -I /opt/cray/pe/atp/3.14.13/include -I /opt/cray/wlm_detect/1.3.3-7.0.4.1_2.1__g7109084.ari/include -I /opt/cray/krca/2.2.8-7.0.4.1_2.1__g59af36e.ari/include -I /opt/cray-hss-devel/9.0.0/include --gdwarf-5 --64 -o /lus/scratch/tmp/cc4ReiYC.o /lus/scratch/tmp/ccWOpWcB.s
GNU assembler version 2.37 (x86_64-suse-linux) using BFD version (GNU Binutils; SUSE Linux Enterprise 15) 2.37.20211103-150100.7.37
Reading specs from /opt/gcc/12.1.0/snos/lib/gcc/x86_64-suse-linux/12.1.0/../../../../lib64/libgfortran.spec
rename spec lib to liborig
 /opt/gcc/12.1.0/snos/libexec/gcc/x86_64-suse-linux/12.1.0/collect2 -plugin /opt/gcc/12.1.0/snos/libexec/gcc/x86_64-suse-linux/12.1.0/liblto_plugin.so -plugin-opt=/opt/gcc/12.1.0/snos/libexec/gcc/x86_64-suse-linux/12.1.0/lto-wrapper -plugin-opt=-fresolution=/lus/scratch/tmp/ccPp5VAz.res -plugin-opt=-pass-through=-lgcc_s -plugin-opt=-pass-through=-lgcc -plugin-opt=-pass-through=-lquadmath -plugin-opt=-pass-through=-lm -plugin-opt=-pass-through=-lgcc_s -plugin-opt=-pass-through=-lgcc -plugin-opt=-pass-through=-lc -plugin-opt=-pass-through=-lgcc_s -plugin-opt=-pass-through=-lgcc --eh-frame-hdr -m elf_x86_64 -dynamic-linker /lib64/ld-linux-x86-64.so.2 -o conftest /usr/lib/../lib64/crt1.o /usr/lib/../lib64/crti.o /opt/gcc/12.1.0/snos/lib/gcc/x86_64-suse-linux/12.1.0/crtbegin.o -L/opt/cray/pe/perftools/22.09.0/lib64 -L/opt/cray/dmapp/default/lib64 -L/opt/cray/pe/mpt/7.7.20/gni/mpich-gnu/8.2/lib -L/opt/cray/dmapp/default/lib64 -L/opt/cray/pe/mpt/7.7.20/gni/mpich-gnu/8.2/lib -L/opt/cray/pe/libsci/22.05.1/GNU/8.1/x86_64/lib -L/opt/cray/rca/2.2.22-7.0.4.1_2.1__ged51428.ari/lib64 -L/opt/cray/pe/atp/3.14.13/lib -L/opt/cray/pe/perftools/22.09.0/libexec64 -L/opt/gcc/12.1.0/snos/lib/gcc/x86_64-suse-linux/12.1.0 -L/opt/gcc/12.1.0/snos/lib/gcc/x86_64-suse-linux/12.1.0/../../../../lib64 -L/lib/../lib64 -L/usr/lib/../lib64 -L/opt/gcc/12.1.0/snos/lib/gcc/x86_64-suse-linux/12.1.0/../../.. /lus/scratch/tmp/cc4ReiYC.o -rpath=/opt/cray/pe/gcc-libs -Bdynamic -lrca -lAtpSigHandler -rpath /opt/cray/pe/atp/3.14.13/lib --undefined=__libAtpSigHandler_ctor --as-needed -lsci_gnu_82_mpi --no-as-needed --as-needed -lsci_gnu_82 --no-as-needed --as-needed -lmpich_gnu_82 --no-as-needed --as-needed -lmpichf90_gnu_82 --no-as-needed --as-needed -lgfortran -lquadmath --no-as-needed --as-needed -lpthread --no-as-needed --disable-new-dtags -lgfortran -lm -lgcc_s -lgcc -lquadmath -lm -lgcc_s -lgcc -lc -lgcc_s -lgcc /opt/gcc/12.1.0/snos/lib/gcc/x86_64-suse-linux/12.1.0/crtend.o /usr/lib/../lib64/crtn.o
WARNING: PerfTools is saving object files from a temporary directory into directory '/home/users/smehta/.craypat/conftest/29527'
configure:4580: result:  -L/opt/cray/pe/perftools/22.09.0/lib64 -L/opt/cray/dmapp/default/lib64 -L/opt/cray/pe/mpt/7.7.20/gni/mpich-gnu/8.2/lib -L/opt/cray/pe/libsci/22.05.1/GNU/8.1/x86_64/lib -L/opt/cray/rca/2.2.22-7.0.4.1_2.1__ged51428.ari/lib64 -L/opt/cray/pe/atp/3.14.13/lib -L/opt/cray/pe/perftools/22.09.0/libexec64 -L/opt/gcc/12.1.0/snos/lib/gcc/x86_64-suse-linux/12.1.0 -L/opt/gcc/12.1.0/snos/lib/gcc/x86_64-suse-linux/12.1.0/../../../../lib64 -L/lib/../lib64 -L/usr/lib/../lib64 -L/opt/gcc/12.1.0/snos/lib/gcc/x86_64-suse-linux/12.1.0/../../.. -lrca -lAtpSigHandler -lsci_gnu_82_mpi -lsci_gnu_82 -lmpich_gnu_82 -lmpichf90_gnu_82 -lgfortran -lquadmath -lpthread -lm
configure:4653: checking for gcc
configure:4674: found /opt/gcc/12.1.0/bin/gcc
configure:4685: result: gcc
configure:5038: checking for C compiler version
configure:5047: gcc --version >&5
gcc (GCC) 12.1.0 20220506 (HPE)
Copyright (C) 2022 Free Software Foundation, Inc.
This is free software; see the source for copying conditions.  There is NO
warranty; not even for MERCHANTABILITY or FITNESS FOR A PARTICULAR PURPOSE.

configure:5058: $? = 0
configure:5047: gcc -v >&5
Using built-in specs.
COLLECT_GCC=/opt/gcc/12.1.0/bin/../snos/bin/gcc
COLLECT_LTO_WRAPPER=/opt/gcc/12.1.0/snos/libexec/gcc/x86_64-suse-linux/12.1.0/lto-wrapper
Target: x86_64-suse-linux
Configured with: ../cray-gcc-12.1.0-202211021830.d2288ea063c1a/configure --prefix=/opt/gcc/12.1.0/snos --disable-nls --libdir=/opt/gcc/12.1.0/snos/lib --enable-languages=c,c++,fortran --with-gxx-include-dir=/opt/gcc/12.1.0/snos/include/g++ --with-slibdir=/opt/gcc/12.1.0/snos/lib --with-system-zlib --enable-shared --enable-__cxa_atexit --build=x86_64-suse-linux --with-ppl --with-cloog --disable-multilib
Thread model: posix
Supported LTO compression algorithms: zlib
gcc version 12.1.0 20220506 (HPE) (GCC) 
configure:5058: $? = 0
configure:5047: gcc -V >&5
gcc: error: unrecognized command-line option '-V'
gcc: fatal error: no input files
compilation terminated.
configure:5058: $? = 1
configure:5047: gcc -qversion >&5
gcc: error: unrecognized command-line option '-qversion'; did you mean '--version'?
gcc: fatal error: no input files
compilation terminated.
configure:5058: $? = 1
configure:5047: gcc -version >&5
gcc: error: unrecognized command-line option '-version'
gcc: fatal error: no input files
compilation terminated.
configure:5058: $? = 1
configure:5062: checking whether the compiler supports GNU C
configure:5090: gcc -c   conftest.c >&5
configure:5090: $? = 0
configure:5100: result: yes
configure:5111: checking whether gcc accepts -g
configure:5140: gcc -c -g  conftest.c >&5
configure:5140: $? = 0
configure:5200: result: yes
configure:5220: checking for gcc option to enable C11 features
configure:5235: gcc  -c -g -O2  conftest.c >&5
configure:5235: $? = 0
configure:5253: result: none needed
configure:5369: checking for dummy main to link with Fortran libraries
configure:5404: gcc -o conftest -g -O2   conftest.c   -L/opt/cray/pe/perftools/22.09.0/lib64 -L/opt/cray/dmapp/default/lib64 -L/opt/cray/pe/mpt/7.7.20/gni/mpich-gnu/8.2/lib -L/opt/cray/pe/libsci/22.05.1/GNU/8.1/x86_64/lib -L/opt/cray/rca/2.2.22-7.0.4.1_2.1__ged51428.ari/lib64 -L/opt/cray/pe/atp/3.14.13/lib -L/opt/cray/pe/perftools/22.09.0/libexec64 -L/opt/gcc/12.1.0/snos/lib/gcc/x86_64-suse-linux/12.1.0 -L/opt/gcc/12.1.0/snos/lib/gcc/x86_64-suse-linux/12.1.0/../../../../lib64 -L/lib/../lib64 -L/usr/lib/../lib64 -L/opt/gcc/12.1.0/snos/lib/gcc/x86_64-suse-linux/12.1.0/../../.. -lrca -lAtpSigHandler -lsci_gnu_82_mpi -lsci_gnu_82 -lmpich_gnu_82 -lmpichf90_gnu_82 -lgfortran -lquadmath -lpthread -lm >&5
configure:5404: $? = 0
configure:5451: result: none
configure:5483: checking for Fortran name-mangling scheme
configure:5497: ftn -c -g -O3 -fallow-argument-mismatch  conftest.f >&5
configure:5497: $? = 0
configure:5536: gcc -o conftest -g -O2   conftest.c cfortran_test.o   -L/opt/cray/pe/perftools/22.09.0/lib64 -L/opt/cray/dmapp/default/lib64 -L/opt/cray/pe/mpt/7.7.20/gni/mpich-gnu/8.2/lib -L/opt/cray/pe/libsci/22.05.1/GNU/8.1/x86_64/lib -L/opt/cray/rca/2.2.22-7.0.4.1_2.1__ged51428.ari/lib64 -L/opt/cray/pe/atp/3.14.13/lib -L/opt/cray/pe/perftools/22.09.0/libexec64 -L/opt/gcc/12.1.0/snos/lib/gcc/x86_64-suse-linux/12.1.0 -L/opt/gcc/12.1.0/snos/lib/gcc/x86_64-suse-linux/12.1.0/../../../../lib64 -L/lib/../lib64 -L/usr/lib/../lib64 -L/opt/gcc/12.1.0/snos/lib/gcc/x86_64-suse-linux/12.1.0/../../.. -lrca -lAtpSigHandler -lsci_gnu_82_mpi -lsci_gnu_82 -lmpich_gnu_82 -lmpichf90_gnu_82 -lgfortran -lquadmath -lpthread -lm >&5
/usr/bin/ld: /lus/scratch/tmp/ccaSMhP8.o: in function `main':
/cray/css/users/smehta/specfem3d/conftest.c:25: undefined reference to `foobar'
collect2: error: ld returned 1 exit status
configure:5536: $? = 1
configure: failed program was:
| /* confdefs.h */
| #define PACKAGE_NAME "Specfem3D"
| #define PACKAGE_TARNAME "Specfem3D"
| #define PACKAGE_VERSION "4.0.0"
| #define PACKAGE_STRING "Specfem3D 4.0.0"
| #define PACKAGE_BUGREPORT "see the wiki"
| #define PACKAGE_URL ""
| /* end confdefs.h.  */
| 
| /* Override any GCC internal prototype to avoid an error.
|    Use char because int might match the return type of a GCC
|    builtin and then its argument prototype would still apply.  */
| char foobar ();
| #ifdef FC_DUMMY_MAIN
| #ifndef FC_DUMMY_MAIN_EQ_F77
| #  ifdef __cplusplus
|      extern "C"
| #  endif
|    int FC_DUMMY_MAIN() { return 1; }
| #endif
| #endif
| int
| main (void)
| {
| return foobar ();
|   ;
|   return 0;
| }
configure:5536: gcc -o conftest -g -O2   conftest.c cfortran_test.o   -L/opt/cray/pe/perftools/22.09.0/lib64 -L/opt/cray/dmapp/default/lib64 -L/opt/cray/pe/mpt/7.7.20/gni/mpich-gnu/8.2/lib -L/opt/cray/pe/libsci/22.05.1/GNU/8.1/x86_64/lib -L/opt/cray/rca/2.2.22-7.0.4.1_2.1__ged51428.ari/lib64 -L/opt/cray/pe/atp/3.14.13/lib -L/opt/cray/pe/perftools/22.09.0/libexec64 -L/opt/gcc/12.1.0/snos/lib/gcc/x86_64-suse-linux/12.1.0 -L/opt/gcc/12.1.0/snos/lib/gcc/x86_64-suse-linux/12.1.0/../../../../lib64 -L/lib/../lib64 -L/usr/lib/../lib64 -L/opt/gcc/12.1.0/snos/lib/gcc/x86_64-suse-linux/12.1.0/../../.. -lrca -lAtpSigHandler -lsci_gnu_82_mpi -lsci_gnu_82 -lmpich_gnu_82 -lmpichf90_gnu_82 -lgfortran -lquadmath -lpthread -lm >&5
configure:5536: $? = 0
configure:5592: gcc -o conftest -g -O2   conftest.c cfortran_test.o   -L/opt/cray/pe/perftools/22.09.0/lib64 -L/opt/cray/dmapp/default/lib64 -L/opt/cray/pe/mpt/7.7.20/gni/mpich-gnu/8.2/lib -L/opt/cray/pe/libsci/22.05.1/GNU/8.1/x86_64/lib -L/opt/cray/rca/2.2.22-7.0.4.1_2.1__ged51428.ari/lib64 -L/opt/cray/pe/atp/3.14.13/lib -L/opt/cray/pe/perftools/22.09.0/libexec64 -L/opt/gcc/12.1.0/snos/lib/gcc/x86_64-suse-linux/12.1.0 -L/opt/gcc/12.1.0/snos/lib/gcc/x86_64-suse-linux/12.1.0/../../../../lib64 -L/lib/../lib64 -L/usr/lib/../lib64 -L/opt/gcc/12.1.0/snos/lib/gcc/x86_64-suse-linux/12.1.0/../../.. -lrca -lAtpSigHandler -lsci_gnu_82_mpi -lsci_gnu_82 -lmpich_gnu_82 -lmpichf90_gnu_82 -lgfortran -lquadmath -lpthread -lm >&5
configure:5592: $? = 0
configure:5635: result: lower case, underscore, no extra underscore
configure:5710: checking for Fortran flag to compile .f90 files
configure:5731: ftn -c -g -O3 -fallow-argument-mismatch  conftest.f90 >&5
configure:5731: $? = 0
configure:5741: result: none
configure:5766: checking for Fortran flag needed to accept free-form source
configure:5786: ftn -c -g -O3 -fallow-argument-mismatch  conftest.f90 >&5
configure:5786: $? = 0
configure:5796: result: none
configure:5821: checking for Fortran flag to compile preprocessed .F files
configure:5847: ftn -c -g -O3 -fallow-argument-mismatch  conftest.F >&5
configure:5847: $? = 0
configure:5858: ftn -c -g -O3 -fallow-argument-mismatch  conftest.F >&5
conftest.F:5:2:

    5 |       choke me
      |  1    ~~~~~~~~     
Fatal Error: ac_nonexistent.h: No such file or directory
compilation terminated.
configure:5858: $? = 1
configure: failed program was:
|       program main
| 
| #if 1
| #include <ac_nonexistent.h>
|       choke me
| #endif
|       end
configure:5872: result: none
configure:5893: checking how to define symbols for preprocessed Fortran
configure:5916: ftn -c -g -O3 -fallow-argument-mismatch -DFOOBAR -DZORK=42  conftest.F >&5
configure:5916: $? = 0
configure:5926: result: -D
configure:5946: checking for Fortran flag to compile preprocessed .F90 files
configure:5972: ftn -c -g -O3 -fallow-argument-mismatch  conftest.F90 >&5
configure:5972: $? = 0
configure:5983: ftn -c -g -O3 -fallow-argument-mismatch  conftest.F90 >&5
conftest.F90:5:2:

    5 |       choke me
      |  1    ~~~~~~~~     
Fatal Error: ac_nonexistent.h: No such file or directory
compilation terminated.
configure:5983: $? = 1
configure: failed program was:
|       program main
| 
| #if 1
| #include <ac_nonexistent.h>
|       choke me
| #endif
|       end
configure:5997: result: none
configure:6071: checking for gcc
configure:6103: result: gcc
configure:6456: checking for C compiler version
configure:6465: gcc --version >&5
gcc (GCC) 12.1.0 20220506 (HPE)
Copyright (C) 2022 Free Software Foundation, Inc.
This is free software; see the source for copying conditions.  There is NO
warranty; not even for MERCHANTABILITY or FITNESS FOR A PARTICULAR PURPOSE.

configure:6476: $? = 0
configure:6465: gcc -v >&5
Using built-in specs.
COLLECT_GCC=/opt/gcc/12.1.0/bin/../snos/bin/gcc
COLLECT_LTO_WRAPPER=/opt/gcc/12.1.0/snos/libexec/gcc/x86_64-suse-linux/12.1.0/lto-wrapper
Target: x86_64-suse-linux
Configured with: ../cray-gcc-12.1.0-202211021830.d2288ea063c1a/configure --prefix=/opt/gcc/12.1.0/snos --disable-nls --libdir=/opt/gcc/12.1.0/snos/lib --enable-languages=c,c++,fortran --with-gxx-include-dir=/opt/gcc/12.1.0/snos/include/g++ --with-slibdir=/opt/gcc/12.1.0/snos/lib --with-system-zlib --enable-shared --enable-__cxa_atexit --build=x86_64-suse-linux --with-ppl --with-cloog --disable-multilib
Thread model: posix
Supported LTO compression algorithms: zlib
gcc version 12.1.0 20220506 (HPE) (GCC) 
configure:6476: $? = 0
configure:6465: gcc -V >&5
gcc: error: unrecognized command-line option '-V'
gcc: fatal error: no input files
compilation terminated.
configure:6476: $? = 1
configure:6465: gcc -qversion >&5
gcc: error: unrecognized command-line option '-qversion'; did you mean '--version'?
gcc: fatal error: no input files
compilation terminated.
configure:6476: $? = 1
configure:6465: gcc -version >&5
gcc: error: unrecognized command-line option '-version'
gcc: fatal error: no input files
compilation terminated.
configure:6476: $? = 1
configure:6480: checking whether the compiler supports GNU C
configure:6518: result: yes
configure:6529: checking whether gcc accepts -g
configure:6618: result: yes
configure:6638: checking for gcc option to enable C11 features
configure:6671: result: none needed
configure:6846: checking for scotchfarchinit  in -lscotch
configure:6859: ftn -o conftest -g -O3 -fallow-argument-mismatch  -L/usr/lib  conftest.F90 -lscotch -lscotcherr  >&5
WARNING: PerfTools is saving object files from a temporary directory into directory '/home/users/smehta/.craypat/conftest/29883'
/usr/bin/ld: cannot find -lscotch
/usr/bin/ld: cannot find -lscotcherr
/usr/bin/ld: skipping incompatible /usr/lib/libpthread.so when searching for -lpthread
/usr/bin/ld: skipping incompatible /usr/lib/libm.so when searching for -lm
collect2: error: ld returned 1 exit status
configure:6859: $? = 1
configure: failed program was:
|       program main
|       call scotchfarchinit
|       end
configure:6869: result: no
configure:6891: checking whether Scotch is usable
configure:6908: result: no, using bundled scotch instead
configure:6914: checking for flex
configure:6935: found /usr/bin/flex
configure:6946: result: flex
configure:6995: checking for lex output file root
configure:7008: flex conftest.l
configure:7012: $? = 0
configure:7020: result: lex.yy
configure:7035: checking for lex library
configure:7059: ftn -o conftest -g -O3 -fallow-argument-mismatch   conftest.F90  >&5
/usr/include/sys/cdefs.h:30:3:

   30 | # error "You need a ISO C conforming compiler to use the glibc headers"
      |   1~~~~
Error: #error "You need a ISO C conforming compiler to use the glibc headers"
/usr/include/bits/libc-header-start.h:56:0:

   56 | #if __GLIBC_USE (IEC_60559_BFP_EXT) || __GLIBC_USE (ISOC2X)
      | 
Error: token "##" is not valid in preprocessor expressions
/usr/include/bits/libc-header-start.h:73:0:

   73 | #if __GLIBC_USE (IEC_60559_FUNCS_EXT) || __GLIBC_USE (ISOC2X)
      | 
Error: token "##" is not valid in preprocessor expressions
/usr/include/stdio.h:290:0:

  290 | #if defined __USE_XOPEN2K8 || __GLIBC_USE (LIB_EXT2)
      | 
Error: token "##" is not valid in preprocessor expressions
/usr/include/stdio.h:363:0:

  363 | #if __GLIBC_USE (LIB_EXT2)
      | 
Error: token "##" is not valid in preprocessor expressions
/usr/include/stdio.h:405:0:

  405 | #if !__GLIBC_USE (DEPRECATED_SCANF) && !defined __LDBL_COMPAT
      | 
Error: token "##" is not valid in preprocessor expressions
/usr/include/stdio.h:449:0:

  449 | # if !__GLIBC_USE (DEPRECATED_SCANF)
      | 
Error: token "##" is not valid in preprocessor expressions
/usr/include/stdio.h:567:0:

  567 | #if __GLIBC_USE (DEPRECATED_GETS)
      | 
Error: token "##" is not valid in preprocessor expressions
/usr/include/stdio.h:592:0:

  592 | #if defined __USE_XOPEN2K8 || __GLIBC_USE (LIB_EXT2)
      | 
Error: token "##" is not valid in preprocessor expressions
/usr/include/bits/stdio.h:41:0:

   41 |   return vfprintf (stdout, __fmt, __arg);
      | 
Error: detected recursion whilst expanding macro "stdout"
/usr/include/bits/stdio.h:49:0:

   49 |   return getc (stdin);
      | 
Error: detected recursion whilst expanding macro "stdin"
/usr/include/bits/stdio.h:75:0:

   75 |   return __getc_unlocked_body (stdin);
      | 
Error: detected recursion whilst expanding macro "stdin"
/usr/include/bits/stdio.h:75:0: Error: detected recursion whilst expanding macro "stdin"
/usr/include/bits/stdio.h:75:0: Error: detected recursion whilst expanding macro "stdin"
/usr/include/bits/stdio.h:75:0: Error: detected recursion whilst expanding macro "stdin"
/usr/include/bits/stdio.h:84:0:

   84 |   return putc (__c, stdout);
      | 
Error: detected recursion whilst expanding macro "stdout"
/usr/include/bits/stdio.h:110:0:

  110 |   return __putc_unlocked_body (__c, stdout);
      | 
Error: detected recursion whilst expanding macro "stdout"
/usr/include/bits/stdio.h:110:0: Error: detected recursion whilst expanding macro "stdout"
/usr/include/bits/stdio.h:110:0: Error: detected recursion whilst expanding macro "stdout"
/usr/include/bits/stdio.h:110:0: Error: detected recursion whilst expanding macro "stdout"
/usr/include/bits/libc-header-start.h:56:0:

   56 | #if __GLIBC_USE (IEC_60559_BFP_EXT) || __GLIBC_USE (ISOC2X)
      | 
Error: token "##" is not valid in preprocessor expressions
/usr/include/bits/libc-header-start.h:73:0:

   73 | #if __GLIBC_USE (IEC_60559_FUNCS_EXT) || __GLIBC_USE (ISOC2X)
      | 
Error: token "##" is not valid in preprocessor expressions
/usr/include/string.h:53:0:

   53 | #if defined __USE_MISC || defined __USE_XOPEN || __GLIBC_USE (ISOC2X)
      | 
Error: token "##" is not valid in preprocessor expressions
/usr/include/string.h:164:0:

  164 | #if (defined __USE_XOPEN_EXTENDED || defined __USE_XOPEN2K8     \
      | 
Error: token "##" is not valid in preprocessor expressions
/usr/include/string.h:174:0:

  174 | #if defined __USE_XOPEN2K8 || __GLIBC_USE (LIB_EXT2) || __GLIBC_USE (ISOC2X)
      | 
Error: token "##" is not valid in preprocessor expressions
/usr/include/bits/libc-header-start.h:56:0:

   56 | #if __GLIBC_USE (IEC_60559_BFP_EXT) || __GLIBC_USE (ISOC2X)
      | 
Error: token "##" is not valid in preprocessor expressions
/usr/include/bits/libc-header-start.h:73:0:

   73 | #if __GLIBC_USE (IEC_60559_FUNCS_EXT) || __GLIBC_USE (ISOC2X)
      | 
Error: token "##" is not valid in preprocessor expressions
/usr/include/stdlib.h:133:0:

  133 | #if __HAVE_FLOAT16 && __GLIBC_USE (IEC_60559_TYPES_EXT)
      | 
Error: token "##" is not valid in preprocessor expressions
/usr/include/stdlib.h:139:0:

  139 | #if __HAVE_FLOAT32 && __GLIBC_USE (IEC_60559_TYPES_EXT)
      | 
Error: token "##" is not valid in preprocessor expressions
/usr/include/stdlib.h:145:0:

  145 | #if __HAVE_FLOAT64 && __GLIBC_USE (IEC_60559_TYPES_EXT)
      | 
Error: token "##" is not valid in preprocessor expressions
/usr/include/stdlib.h:151:0:

  151 | #if __HAVE_FLOAT128 && __GLIBC_USE (IEC_60559_TYPES_EXT)
      | 
Error: token "##" is not valid in preprocessor expressions
/usr/include/stdlib.h:157:0:

  157 | #if __HAVE_FLOAT32X && __GLIBC_USE (IEC_60559_TYPES_EXT)
      | 
Error: token "##" is not valid in preprocessor expressions
/usr/include/stdlib.h:163:0:

  163 | #if __HAVE_FLOAT64X && __GLIBC_USE (IEC_60559_TYPES_EXT)
      | 
Error: token "##" is not valid in preprocessor expressions
/usr/include/stdlib.h:169:0:

  169 | #if __HAVE_FLOAT128X && __GLIBC_USE (IEC_60559_TYPES_EXT)
      | 
Error: token "##" is not valid in preprocessor expressions
/usr/include/stdlib.h:211:0:

  211 | #if __GLIBC_USE (IEC_60559_BFP_EXT_C2X)
      | 
Error: token "##" is not valid in preprocessor expressions
/usr/include/stdlib.h:225:0:

  225 | #if __HAVE_FLOAT16 && __GLIBC_USE (IEC_60559_TYPES_EXT)
      | 
Error: token "##" is not valid in preprocessor expressions
/usr/include/stdlib.h:231:0:

  231 | #if __HAVE_FLOAT32 && __GLIBC_USE (IEC_60559_TYPES_EXT)
      | 
Error: token "##" is not valid in preprocessor expressions
/usr/include/stdlib.h:237:0:

  237 | #if __HAVE_FLOAT64 && __GLIBC_USE (IEC_60559_TYPES_EXT)
      | 
Error: token "##" is not valid in preprocessor expressions
/usr/include/stdlib.h:243:0:

  243 | #if __HAVE_FLOAT128 && __GLIBC_USE (IEC_60559_TYPES_EXT)
      | 
Error: token "##" is not valid in preprocessor expressions
/usr/include/stdlib.h:249:0:

  249 | #if __HAVE_FLOAT32X && __GLIBC_USE (IEC_60559_TYPES_EXT)
      | 
Error: token "##" is not valid in preprocessor expressions
/usr/include/stdlib.h:255:0:

  255 | #if __HAVE_FLOAT64X && __GLIBC_USE (IEC_60559_TYPES_EXT)
      | 
Error: token "##" is not valid in preprocessor expressions
/usr/include/stdlib.h:261:0:

  261 | #if __HAVE_FLOAT128X && __GLIBC_USE (IEC_60559_TYPES_EXT)
      | 
Error: token "##" is not valid in preprocessor expressions
/usr/include/bits/confname.h:201:0:

  201 |     _SC_IOV_MAX = _SC_UIO_MAXIOV,
      | 
Error: detected recursion whilst expanding macro "_SC_UIO_MAXIOV"
/usr/include/bits/confname.h:497:0:

  497 |     _SC_IPV6 = _SC_LEVEL1_ICACHE_SIZE + 50,
      | 
Error: detected recursion whilst expanding macro "_SC_LEVEL1_ICACHE_SIZE"
lex.yy.c:672:0:

  672 |                 if ( ! yyin )
      | 
Error: detected recursion whilst expanding macro "stdin"
lex.yy.c:675:0:

  675 |                 if ( ! yyout )
      | 
Error: detected recursion whilst expanding macro "stdout"
lex.yy.c:1572:0:

 1572 | {
      | 
Error: detected recursion whilst expanding macro "stderr"
/opt/gcc/12.1.0/snos/lib/gcc/x86_64-suse-linux/12.1.0/include/stddef.h:214:5:

  214 | typedef __SIZE_TYPE__ size_t;
      |     1
Error: Mangled derived type definition at (1)
/opt/gcc/12.1.0/snos/lib/gcc/x86_64-suse-linux/12.1.0/include/stdarg.h:40:5:

   40 | typedef __builtin_va_list __gnuc_va_list;
      |     1
Error: Mangled derived type definition at (1)
/usr/include/bits/types.h:31:5:

   31 | typedef unsigned char __u_char;
      |     1
Error: Mangled derived type definition at (1)
/usr/include/bits/types.h:32:5:

   32 | typedef unsigned short int __u_short;
      |     1
Error: Mangled derived type definition at (1)
/usr/include/bits/types.h:33:5:

   33 | typedef unsigned int __u_int;
      |     1
Error: Mangled derived type definition at (1)
/usr/include/bits/types.h:34:5:

   34 | typedef unsigned long int __u_long;
      |     1
Error: Mangled derived type definition at (1)
/usr/include/bits/types.h:37:5:

   37 | typedef signed char __int8_t;
      |     1
Error: Mangled derived type definition at (1)
/usr/include/bits/types.h:38:5:

   38 | typedef unsigned char __uint8_t;
      |     1
Error: Mangled derived type definition at (1)
/usr/include/bits/types.h:39:5:

   39 | typedef signed short int __int16_t;
      |     1
Error: Mangled derived type definition at (1)
/usr/include/bits/types.h:40:5:

   40 | typedef unsigned short int __uint16_t;
      |     1
Error: Mangled derived type definition at (1)
/usr/include/bits/types.h:41:5:

   41 | typedef signed int __int32_t;
      |     1
Error: Mangled derived type definition at (1)
/usr/include/bits/types.h:42:5:

   42 | typedef unsigned int __uint32_t;
      |     1
Error: Mangled derived type definition at (1)
/usr/include/bits/types.h:47:2:

   47 | __extension__ typedef signed long long int __int64_t;
      |  1
Error: Invalid character in name at (1)
/usr/include/bits/types.h:48:2:

   48 | __extension__ typedef unsigned long long int __uint64_t;
      |  1
Error: Invalid character in name at (1)
/usr/include/bits/types.h:52:5:

   52 | typedef __int8_t __int_least8_t;
      |     1
Error: Mangled derived type definition at (1)
/usr/include/bits/types.h:53:5:

   53 | typedef __uint8_t __uint_least8_t;
      |     1
Error: Mangled derived type definition at (1)
/usr/include/bits/types.h:54:5:

   54 | typedef __int16_t __int_least16_t;
      |     1
Error: Mangled derived type definition at (1)
/usr/include/bits/types.h:55:5:

   55 | typedef __uint16_t __uint_least16_t;
      |     1
Error: Mangled derived type definition at (1)
/usr/include/bits/types.h:56:5:

   56 | typedef __int32_t __int_least32_t;
      |     1
Error: Mangled derived type definition at (1)
/usr/include/bits/types.h:57:5:

   57 | typedef __uint32_t __uint_least32_t;
      |     1
Error: Mangled derived type definition at (1)
/usr/include/bits/types.h:58:5:

   58 | typedef __int64_t __int_least64_t;
      |     1
Error: Mangled derived type definition at (1)
/usr/include/bits/types.h:59:5:

   59 | typedef __uint64_t __uint_least64_t;
      |     1
Error: Mangled derived type definition at (1)
/usr/include/bits/types.h:66:2:

   66 | __extension__ typedef long long int __quad_t;
      |  1
Error: Invalid character in name at (1)
/usr/include/bits/types.h:67:2:

   67 | __extension__ typedef unsigned long long int __u_quad_t;
      |  1
Error: Invalid character in name at (1)
/usr/include/bits/types.h:75:2:

   75 | __extension__ typedef long long int __intmax_t;
      |  1
Error: Invalid character in name at (1)
/usr/include/bits/types.h:76:2:

   76 | __extension__ typedef unsigned long long int __uintmax_t;
      |  1
Error: Invalid character in name at (1)
/usr/include/bits/types.h:145:2:

  145 | __STD_TYPE __DEV_T_TYPE __dev_t;        /* Type of device numbers.  */
      |  1
Error: Invalid character in name at (1)
/usr/include/bits/types.h:146:2:

  146 | __STD_TYPE __UID_T_TYPE __uid_t;        /* Type of user identifications.  */
      |  1
Error: Invalid character in name at (1)
/usr/include/bits/types.h:147:2:

  147 | __STD_TYPE __GID_T_TYPE __gid_t;        /* Type of group identifications.  */
      |  1
Error: Invalid character in name at (1)
/usr/include/bits/types.h:148:2:

  148 | __STD_TYPE __INO_T_TYPE __ino_t;        /* Type of file serial numbers.  */
      |  1
Error: Invalid character in name at (1)
/usr/include/bits/types.h:149:2:

  149 | __STD_TYPE __INO64_T_TYPE __ino64_t;    /* Type of file serial numbers (LFS).*/
      |  1
Error: Invalid character in name at (1)
/usr/include/bits/types.h:150:2:

  150 | __STD_TYPE __MODE_T_TYPE __mode_t;      /* Type of file attribute bitmasks.  */
      |  1
Error: Invalid character in name at (1)
/usr/include/bits/types.h:151:2:

  151 | __STD_TYPE __NLINK_T_TYPE __nlink_t;    /* Type of file link counts.  */
      |  1
Error: Invalid character in name at (1)
/usr/include/bits/types.h:152:2:

  152 | __STD_TYPE __OFF_T_TYPE __off_t;        /* Type of file sizes and offsets.  */
      |  1
Error: Invalid character in name at (1)
/usr/include/bits/types.h:153:2:

  153 | __STD_TYPE __OFF64_T_TYPE __off64_t;    /* Type of file sizes and offsets (LFS).  */
      |  1
Error: Invalid character in name at (1)
/usr/include/bits/types.h:154:2:

  154 | __STD_TYPE __PID_T_TYPE __pid_t;        /* Type of process identifications.  */
      |  1
Error: Invalid character in name at (1)
/usr/include/bits/types.h:155:2:

  155 | __STD_TYPE __FSID_T_TYPE __fsid_t;      /* Type of file system IDs.  */
      |  1
Error: Invalid character in name at (1)
/usr/include/bits/types.h:155:47:

  155 | __STD_TYPE __FSID_T_TYPE __fsid_t;      /* Type of file system IDs.  */
      |                                                    1
Error: Invalid character in name at (1)
/usr/include/bits/types.h:156:2:

  156 | __STD_TYPE __CLOCK_T_TYPE __clock_t;    /* Type of CPU usage counts.  */
      |  1
Error: Invalid character in name at (1)
/usr/include/bits/types.h:157:2:

  157 | __STD_TYPE __RLIM_T_TYPE __rlim_t;      /* Type for resource measurement.  */
      |  1
Error: Invalid character in name at (1)
/usr/include/bits/types.h:158:2:

  158 | __STD_TYPE __RLIM64_T_TYPE __rlim64_t;  /* Type for resource measurement (LFS).  */
      |  1
Error: Invalid character in name at (1)
/usr/include/bits/types.h:159:2:

  159 | __STD_TYPE __ID_T_TYPE __id_t;          /* General type for IDs.  */
      |  1
Error: Invalid character in name at (1)
/usr/include/bits/types.h:160:2:

  160 | __STD_TYPE __TIME_T_TYPE __time_t;      /* Seconds since the Epoch.  */
      |  1
Error: Invalid character in name at (1)
/usr/include/bits/types.h:161:2:

  161 | __STD_TYPE __USECONDS_T_TYPE __useconds_t; /* Count of microseconds.  */
      |  1
Error: Invalid character in name at (1)
/usr/include/bits/types.h:162:2:

  162 | __STD_TYPE __SUSECONDS_T_TYPE __suseconds_t; /* Signed count of microseconds.  */
      |  1
Error: Invalid character in name at (1)
/usr/include/bits/types.h:164:2:

  164 | __STD_TYPE __DADDR_T_TYPE __daddr_t;    /* The type of a disk address.  */
      |  1
Error: Invalid character in name at (1)
/usr/include/bits/types.h:165:2:

  165 | __STD_TYPE __KEY_T_TYPE __key_t;        /* Type of an IPC key.  */
      |  1
Error: Invalid character in name at (1)
/usr/include/bits/types.h:168:2:

  168 | __STD_TYPE __CLOCKID_T_TYPE __clockid_t;
      |  1
Error: Invalid character in name at (1)
/usr/include/bits/types.h:171:2:

  171 | __STD_TYPE __TIMER_T_TYPE __timer_t;
      |  1
Error: Invalid character in name at (1)
/usr/include/bits/types.h:174:2:

  174 | __STD_TYPE __BLKSIZE_T_TYPE __blksize_t;
      |  1
Error: Invalid character in name at (1)
/usr/include/bits/types.h:179:2:

  179 | __STD_TYPE __BLKCNT_T_TYPE __blkcnt_t;
      |  1
Error: Invalid character in name at (1)
/usr/include/bits/types.h:180:2:

  180 | __STD_TYPE __BLKCNT64_T_TYPE __blkcnt64_t;
      |  1
Error: Invalid character in name at (1)
/usr/include/bits/types.h:183:2:

  183 | __STD_TYPE __FSBLKCNT_T_TYPE __fsblkcnt_t;
      |  1
Error: Invalid character in name at (1)
/usr/include/bits/types.h:184:2:

  184 | __STD_TYPE __FSBLKCNT64_T_TYPE __fsblkcnt64_t;
      |  1
Error: Invalid character in name at (1)
/usr/include/bits/types.h:187:2:

  187 | __STD_TYPE __FSFILCNT_T_TYPE __fsfilcnt_t;
      |  1
Error: Invalid character in name at (1)
/usr/include/bits/types.h:188:2:

  188 | __STD_TYPE __FSFILCNT64_T_TYPE __fsfilcnt64_t;
      |  1
Error: Invalid character in name at (1)
/usr/include/bits/types.h:191:2:

  191 | __STD_TYPE __FSWORD_T_TYPE __fsword_t;
      |  1
Error: Invalid character in name at (1)
/usr/include/bits/types.h:193:2:

  193 | __STD_TYPE __SSIZE_T_TYPE __ssize_t; /* Type of a byte count, or error.  */
      |  1
Error: Invalid character in name at (1)
/usr/include/bits/types.h:196:2:

  196 | __STD_TYPE __SYSCALL_SLONG_TYPE __syscall_slong_t;
      |  1
Error: Invalid character in name at (1)
/usr/include/bits/types.h:198:2:

  198 | __STD_TYPE __SYSCALL_ULONG_TYPE __syscall_ulong_t;
      |  1
Error: Invalid character in name at (1)
/usr/include/bits/types.h:202:5:

  202 | typedef __off64_t __loff_t;     /* Type of file sizes and offsets (LFS).  */
      |     1
Error: Mangled derived type definition at (1)
/usr/include/bits/types.h:203:5:

  203 | typedef char *__caddr_t;
      |     1
Error: Mangled derived type definition at (1)
/usr/include/bits/types.h:206:2:

  206 | __STD_TYPE __SWORD_TYPE __intptr_t;
      |  1
Error: Invalid character in name at (1)
/usr/include/bits/types.h:209:2:

  209 | __STD_TYPE __U32_TYPE __socklen_t;
      |  1
Error: Invalid character in name at (1)
/usr/include/bits/types.h:214:5:

  214 | typedef int __sig_atomic_t;
      |     1
Error: Mangled derived type definition at (1)
/usr/include/bits/types.h:222:2:

  222 | __STD_TYPE __TIME64_T_TYPE __time64_t;
      |  1
Error: Invalid character in name at (1)
/usr/include/bits/types/__mbstate_t.h:13:5:

   13 | typedef struct
      |     1
Error: Mangled derived type definition at (1)
/usr/include/bits/types/__mbstate_t.h:14:1:

   14 | {
      | 1
Error: Invalid character in name at (1)
/usr/include/bits/types/__mbstate_t.h:16:7:

   16 |   union
      |       1
Error: Unexpected UNION statement at (1)
/usr/include/bits/types/__mbstate_t.h:17:3:

   17 |   {
      |   1
Error: Invalid character in name at (1)
/usr/include/bits/types/__mbstate_t.h:20:4:

   20 |   } __value;            /* Value so far.  */
      |    1
Error: Invalid character in name at (1)
/usr/include/bits/types/__mbstate_t.h:21:2:

   21 | } __mbstate_t;
      |  1
Error: Invalid character in name at (1)
/usr/include/bits/types/__fpos_t.h:10:5:

   10 | typedef struct _G_fpos_t
      |     1
Error: Mangled derived type definition at (1)
/usr/include/bits/types/__fpos_t.h:11:1:

   11 | {
      | 1
Error: Invalid character in name at (1)
/usr/include/bits/types/__fpos_t.h:12:4:

   12 |   __off_t __pos;
      |    1
Error: Invalid character in name at (1)
/usr/include/bits/types/__fpos_t.h:13:4:

   13 |   __mbstate_t __state;
      |    1
Error: Invalid character in name at (1)
/usr/include/bits/types/__fpos_t.h:14:2:

   14 | } __fpos_t;
      |  1
Error: Invalid character in name at (1)
/usr/include/bits/types/__fpos64_t.h:10:5:

   10 | typedef struct _G_fpos64_t
      |     1
Error: Mangled derived type definition at (1)
/usr/include/bits/types/__fpos64_t.h:11:1:

   11 | {
      | 1
Error: Invalid character in name at (1)
/usr/include/bits/types/__fpos64_t.h:12:4:

   12 |   __off64_t __pos;
      |    1
Error: Invalid character in name at (1)
/usr/include/bits/types/__fpos64_t.h:13:4:

   13 |   __mbstate_t __state;
      |    1
Error: Invalid character in name at (1)
/usr/include/bits/types/__fpos64_t.h:14:2:

   14 | } __fpos64_t;
      |  1
Error: Invalid character in name at (1)
/usr/include/bits/types/__FILE.h:5:5:

    5 | typedef struct _IO_FILE __FILE;
      |     1
Error: Mangled derived type definition at (1)
/usr/include/bits/types/FILE.h:7:5:

    7 | typedef struct _IO_FILE FILE;
      |     1
Error: Mangled derived type definition at (1)
/usr/include/bits/types/struct_FILE.h:43:5:

   43 | typedef void _IO_lock_t;
      |     1
Error: Mangled derived type definition at (1)
/usr/include/bits/types/struct_FILE.h:50:1:

   50 | {
      | 1
Error: Invalid character in name at (1)
/usr/include/bits/types/struct_FILE.h:74:4:

   74 |   __off_t _old_offset; /* This used to be _offset but it's too small.  */
      |    1
Error: Invalid character in name at (1)
/usr/include/bits/types/struct_FILE.h:81:4:

   81 |   _IO_lock_t *_lock;
      |    1
Error: Invalid character in name at (1)
/usr/include/bits/types/struct_FILE.h:89:4:

   89 |   __off64_t _offset;
      |    1
Error: Invalid character in name at (1)
/usr/include/bits/types/struct_FILE.h:99:2:

   99 | };
      |  1
Error: Invalid character in name at (1)
/usr/include/stdio.h:52:5:

   52 | typedef __gnuc_va_list va_list;
      |     1
Error: Mangled derived type definition at (1)
/usr/include/stdio.h:63:5:

   63 | typedef __off_t off_t;
      |     1
Error: Mangled derived type definition at (1)
/usr/include/stdio.h:77:5:

   77 | typedef __ssize_t ssize_t;
      |     1
Error: Mangled derived type definition at (1)
/usr/include/stdio.h:84:5:

   84 | typedef __fpos_t fpos_t;
      |     1
Error: Mangled derived type definition at (1)
/usr/include/stdio.h:205:7:

  205 |      __THROW __attribute_malloc__ __wur;
      |       1
Error: Invalid character in name at (1)
/usr/include/stdio.h:342:9:

  342 |                      __gnuc_va_list __arg);
      |                       1
Error: Invalid character in name at (1)
/usr/include/stdio.h:350:9:

  350 |                      __gnuc_va_list __arg) __THROWNL;
      |                       1
Error: Invalid character in name at (1)
/usr/include/stdio.h:356:7:

  356 |      __THROWNL __attribute__ ((__format__ (__printf__, 3, 4)));
      |       1
Error: Invalid character in name at (1)
/usr/include/stdio.h:360:7:

  360 |      __THROWNL __attribute__ ((__format__ (__printf__, 3, 0)));
      |       1
Error: Invalid character in name at (1)
/usr/include/stdio.h:380:9:

  380 |                      __gnuc_va_list __arg)
      |                       1
Error: Invalid character in name at (1)
/usr/include/stdio.h:381:7:

  381 |      __attribute__ ((__format__ (__printf__, 2, 0)));
      |       1
Error: Invalid character in name at (1)
/usr/include/stdio.h:383:7:

  383 |      __attribute__ ((__format__ (__printf__, 2, 3)));
      |       1
Error: Invalid character in name at (1)
/usr/include/stdio.h:433:8:

  433 |                     __gnuc_va_list __arg)
      |                      1
Error: Invalid character in name at (1)
/usr/include/stdio.h:434:7:

  434 |      __attribute__ ((__format__ (__scanf__, 2, 0))) __wur;
      |       1
Error: Invalid character in name at (1)
/usr/include/stdio.h:441:7:

  441 |      __attribute__ ((__format__ (__scanf__, 1, 0))) __wur;
      |       1
Error: Invalid character in name at (1)
/usr/include/stdio.h:446:7:

  446 |      __THROW __attribute__ ((__format__ (__scanf__, 2, 0)));
      |       1
Error: Invalid character in name at (1)
/usr/include/bits/stdio.h:40:1:

   40 | {
      | 1
Error: Invalid character in name at (1)
/usr/include/bits/stdio.h:41:9:

   41 |   return vfprintf (stdout, __fmt, __arg);
      |         1
Error: Alternate RETURN statement at (1) is only allowed within a SUBROUTINE
/usr/include/bits/stdio.h:42:1:

   42 | }
      | 1
Error: Invalid character in name at (1)
/usr/include/bits/stdio.h:48:1:

   48 | {
      | 1
Error: Invalid character in name at (1)
/usr/include/bits/stdio.h:49:9:

   49 |   return getc (stdin);
      |         1
Error: Alternate RETURN statement at (1) is only allowed within a SUBROUTINE
/usr/include/bits/stdio.h:50:1:

   50 | }
      | 1
Error: Invalid character in name at (1)
/usr/include/bits/stdio.h:57:1:

   57 | {
      | 1
Error: Invalid character in name at (1)
/usr/include/bits/stdio.h:58:132:

   58 |   return __getc_unlocked_body (__fp);
      |                                                                                                                                    1
Error: Line truncated at (1) [-Werror=line-truncation]
/usr/include/bits/stdio.h:58:9:

   58 |   return __getc_unlocked_body (__fp);
      |         1
Error: Alternate RETURN statement at (1) is only allowed within a SUBROUTINE
/usr/include/bits/stdio.h:59:1:

   59 | }
      | 1
Error: Invalid character in name at (1)
/usr/include/bits/stdio.h:67:1:

   67 | {
      | 1
Error: Invalid character in name at (1)
/usr/include/bits/stdio.h:68:132:

   68 |   return __getc_unlocked_body (__fp);
      |                                                                                                                                    1
Error: Line truncated at (1) [-Werror=line-truncation]
/usr/include/bits/stdio.h:68:9:

   68 |   return __getc_unlocked_body (__fp);
      |         1
Error: Alternate RETURN statement at (1) is only allowed within a SUBROUTINE
/usr/include/bits/stdio.h:69:1:

   69 | }
      | 1
Error: Invalid character in name at (1)
/usr/include/bits/stdio.h:74:1:

   74 | {
      | 1
Error: Invalid character in name at (1)
/usr/include/bits/stdio.h:75:132:

   75 |   return __getc_unlocked_body (stdin);
      |                                                                                                                                    1
Error: Line truncated at (1) [-Werror=line-truncation]
/usr/include/bits/stdio.h:75:9:

   75 |   return __getc_unlocked_body (stdin);
      |         1
Error: Alternate RETURN statement at (1) is only allowed within a SUBROUTINE
/usr/include/bits/stdio.h:76:1:

   76 | }
      | 1
Error: Invalid character in name at (1)
/usr/include/bits/stdio.h:83:1:

   83 | {
      | 1
Error: Invalid character in name at (1)
/usr/include/bits/stdio.h:84:9:

   84 |   return putc (__c, stdout);
      |         1
Error: Alternate RETURN statement at (1) is only allowed within a SUBROUTINE
/usr/include/bits/stdio.h:85:1:

   85 | }
      | 1
Error: Invalid character in name at (1)
/usr/include/bits/stdio.h:92:1:

   92 | {
      | 1
Error: Invalid character in name at (1)
/usr/include/bits/stdio.h:93:132:

   93 |   return __putc_unlocked_body (__c, __stream);
      |                                                                                                                                    1
Error: Line truncated at (1) [-Werror=line-truncation]
/usr/include/bits/stdio.h:93:9:

   93 |   return __putc_unlocked_body (__c, __stream);
      |         1
Error: Alternate RETURN statement at (1) is only allowed within a SUBROUTINE
/usr/include/bits/stdio.h:94:1:

   94 | }
      | 1
Error: Invalid character in name at (1)
/usr/include/bits/stdio.h:102:1:

  102 | {
      | 1
Error: Invalid character in name at (1)
/usr/include/bits/stdio.h:103:132:

  103 |   return __putc_unlocked_body (__c, __stream);
      |                                                                                                                                    1
Error: Line truncated at (1) [-Werror=line-truncation]
/usr/include/bits/stdio.h:103:9:

  103 |   return __putc_unlocked_body (__c, __stream);
      |         1
Error: Alternate RETURN statement at (1) is only allowed within a SUBROUTINE
/usr/include/bits/stdio.h:104:1:

  104 | }
      | 1
Error: Invalid character in name at (1)
/usr/include/bits/stdio.h:109:1:

  109 | {
      | 1
Error: Invalid character in name at (1)
/usr/include/bits/stdio.h:110:132:

  110 |   return __putc_unlocked_body (__c, stdout);
      |                                                                                                                                    1
Error: Line truncated at (1) [-Werror=line-truncation]
/usr/include/bits/stdio.h:110:9:

  110 |   return __putc_unlocked_body (__c, stdout);
      |         1
Error: Alternate RETURN statement at (1) is only allowed within a SUBROUTINE
/usr/include/bits/stdio.h:111:1:

  111 | }
      | 1
Error: Invalid character in name at (1)
/usr/include/bits/stdio.h:128:2:

  128 | __NTH (feof_unlocked (FILE *__stream))
      |  1
Error: Invalid character in name at (1)
/usr/include/bits/stdio.h:129:1:

  129 | {
      | 1
Error: Invalid character in name at (1)
/usr/include/bits/stdio.h:130:9:

  130 |   return __feof_unlocked_body (__stream);
      |         1
Error: Alternate RETURN statement at (1) is only allowed within a SUBROUTINE
/usr/include/bits/stdio.h:131:1:

  131 | }
      | 1
Error: Invalid character in name at (1)
/usr/include/bits/stdio.h:135:2:

  135 | __NTH (ferror_unlocked (FILE *__stream))
      |  1
Error: Invalid character in name at (1)
/usr/include/bits/stdio.h:136:1:

  136 | {
      | 1
Error: Invalid character in name at (1)
/usr/include/bits/stdio.h:137:9:

  137 |   return __ferror_unlocked_body (__stream);
      |         1
Error: Alternate RETURN statement at (1) is only allowed within a SUBROUTINE
/usr/include/bits/stdio.h:138:1:

  138 | }
      | 1
Error: Invalid character in name at (1)
/usr/include/string.h:48:7:

   48 |      __THROW __nonnull ((1, 2));
      |       1
Error: Invalid character in name at (1)
/usr/include/string.h:65:7:

   65 |      __THROW __attribute_pure__ __nonnull ((1, 2));
      |       1
Error: Invalid character in name at (1)
/usr/include/string.h:92:8:

   92 |       __THROW __attribute_pure__ __nonnull ((1));
      |        1
Error: Invalid character in name at (1)
/usr/include/string.h:123:7:

  123 |      __THROW __nonnull ((1, 2));
      |       1
Error: Invalid character in name at (1)
/usr/include/string.h:127:7:

  127 |      __THROW __nonnull ((1, 2));
      |       1
Error: Invalid character in name at (1)
/usr/include/string.h:131:7:

  131 |      __THROW __nonnull ((1, 2));
      |       1
Error: Invalid character in name at (1)
/usr/include/string.h:138:7:

  138 |      __THROW __attribute_pure__ __nonnull ((1, 2));
      |       1
Error: Invalid character in name at (1)
/usr/include/string.h:141:7:

  141 |      __THROW __attribute_pure__ __nonnull ((1, 2));
      |       1
Error: Invalid character in name at (1)
/usr/include/string.h:145:7:

  145 |      __THROW __attribute_pure__ __nonnull ((1, 2));
      |       1
Error: Invalid character in name at (1)
/usr/include/string.h:149:7:

  149 |      __THROW __nonnull ((2));
      |       1
Error: Invalid character in name at (1)
/usr/include/bits/types/__locale_t.h:29:1:

   29 | {
      | 1
Error: Invalid character in name at (1)
/usr/include/bits/types/__locale_t.h:40:2:

   40 | };
      |  1
Error: Invalid character in name at (1)
/usr/include/bits/types/__locale_t.h:42:5:

   42 | typedef struct __locale_struct *__locale_t;
      |     1
Error: Mangled derived type definition at (1)
/usr/include/bits/types/locale_t.h:24:5:

   24 | typedef __locale_t locale_t;
      |     1
Error: Mangled derived type definition at (1)
/usr/include/string.h:157:7:

  157 |      __THROW __attribute_pure__ __nonnull ((1, 2, 3));
      |       1
Error: Invalid character in name at (1)
/usr/include/string.h:227:7:

  227 |      __THROW __attribute_pure__ __nonnull ((1));
      |       1
Error: Invalid character in name at (1)
/usr/include/string.h:254:7:

  254 |      __THROW __attribute_pure__ __nonnull ((1));
      |       1
Error: Invalid character in name at (1)
/usr/include/string.h:274:7:

  274 |      __THROW __attribute_pure__ __nonnull ((1, 2));
      |       1
Error: Invalid character in name at (1)
/usr/include/string.h:278:7:

  278 |      __THROW __attribute_pure__ __nonnull ((1, 2));
      |       1
Error: Invalid character in name at (1)
/usr/include/string.h:304:7:

  304 |      __THROW __attribute_pure__ __nonnull ((1, 2));
      |       1
Error: Invalid character in name at (1)
/usr/include/string.h:331:7:

  331 |      __THROW __attribute_pure__ __nonnull ((1, 2));
      |       1
Error: Invalid character in name at (1)
/usr/include/string.h:337:7:

  337 |      __THROW __nonnull ((2));
      |       1
Error: Invalid character in name at (1)
/usr/include/string.h:344:7:

  344 |      __THROW __nonnull ((2, 3));
      |       1
Error: Invalid character in name at (1)
/usr/include/string.h:348:7:

  348 |      __THROW __nonnull ((2, 3));
      |       1
Error: Invalid character in name at (1)
/usr/include/string.h:386:7:

  386 |      __THROW __attribute_pure__ __nonnull ((1));
      |       1
Error: Invalid character in name at (1)
/usr/include/string.h:392:7:

  392 |      __THROW __attribute_pure__ __nonnull ((1));
      |       1
Error: Invalid character in name at (1)
/usr/include/string.h:410:132:

  410 | extern int __REDIRECT_NTH (strerror_r,
      |                                                                                                                                    1
Error: Line truncated at (1) [-Werror=line-truncation]
/usr/include/strings.h:35:7:

   35 |      __THROW __attribute_pure__ __nonnull ((1, 2));
      |       1
Error: Invalid character in name at (1)
/usr/include/strings.h:39:4:

   39 |   __THROW __nonnull ((1, 2));
      |    1
Error: Invalid character in name at (1)
/usr/include/strings.h:69:7:

   69 |      __THROW __attribute_pure__ __nonnull ((1));
      |       1
Error: Invalid character in name at (1)
/usr/include/strings.h:97:7:

   97 |      __THROW __attribute_pure__ __nonnull ((1));
      |       1
Error: Invalid character in name at (1)
/usr/include/strings.h:111:2:

  111 | __extension__ extern int ffsll (long long int __ll)
      |  1
Error: Invalid character in name at (1)
/usr/include/strings.h:112:7:

  112 |      __THROW __attribute_const__;
      |       1
Error: Invalid character in name at (1)
/usr/include/strings.h:117:7:

  117 |      __THROW __attribute_pure__ __nonnull ((1, 2));
      |       1
Error: Invalid character in name at (1)
/usr/include/strings.h:121:7:

  121 |      __THROW __attribute_pure__ __nonnull ((1, 2));
      |       1
Error: Invalid character in name at (1)
/usr/include/strings.h:129:7:

  129 |      __THROW __attribute_pure__ __nonnull ((1, 2, 3));
      |       1
Error: Invalid character in name at (1)
/usr/include/strings.h:135:7:

  135 |      __THROW __attribute_pure__ __nonnull ((1, 2, 4));
      |       1
Error: Invalid character in name at (1)
/usr/include/string.h:442:7:

  442 |      __THROW __nonnull ((1, 2));
      |       1
Error: Invalid character in name at (1)
/usr/include/string.h:451:7:

  451 |      __THROW __nonnull ((1, 2));
      |       1
Error: Invalid character in name at (1)
/usr/include/string.h:453:7:

  453 |      __THROW __nonnull ((1, 2));
      |       1
Error: Invalid character in name at (1)
/usr/include/string.h:459:7:

  459 |      __THROW __nonnull ((1, 2));
      |       1
Error: Invalid character in name at (1)
/usr/include/string.h:462:7:

  462 |      __THROW __nonnull ((1, 2));
      |       1
Error: Invalid character in name at (1)
/opt/gcc/12.1.0/snos/lib/gcc/x86_64-suse-linux/12.1.0/include/stddef.h:329:5:

  329 | typedef __WCHAR_TYPE__ wchar_t;
      |     1
Error: Mangled derived type definition at (1)
/usr/include/stdlib.h:58:5:

   58 | typedef struct
      |     1
Error: Mangled derived type definition at (1)
/usr/include/stdlib.h:59:3:

   59 |   {
      |   1
Error: Invalid character in name at (1)
/usr/include/stdlib.h:62:4:

   62 |   } div_t;
      |    1
Error: Invalid character in name at (1)
/usr/include/stdlib.h:66:5:

   66 | typedef struct
      |     1
Error: Mangled derived type definition at (1)
/usr/include/stdlib.h:67:3:

   67 |   {
      |   1
Error: Invalid character in name at (1)
/usr/include/stdlib.h:70:4:

   70 |   } ldiv_t;
      |    1
Error: Invalid character in name at (1)
/usr/include/stdlib.h:76:2:

   76 | __extension__ typedef struct
      |  1
Error: Invalid character in name at (1)
/usr/include/stdlib.h:77:3:

   77 |   {
      |   1
Error: Invalid character in name at (1)
/usr/include/stdlib.h:80:4:

   80 |   } lldiv_t;
      |    1
Error: Invalid character in name at (1)
/usr/include/stdlib.h:102:7:

  102 |      __THROW __attribute_pure__ __nonnull ((1)) __wur;
      |       1
Error: Invalid character in name at (1)
/usr/include/stdlib.h:105:7:

  105 |      __THROW __attribute_pure__ __nonnull ((1)) __wur;
      |       1
Error: Invalid character in name at (1)
/usr/include/stdlib.h:108:7:

  108 |      __THROW __attribute_pure__ __nonnull ((1)) __wur;
      |       1
Error: Invalid character in name at (1)
/usr/include/stdlib.h:112:2:

  112 | __extension__ extern long long int atoll (const char *__nptr)
      |  1
Error: Invalid character in name at (1)
/usr/include/stdlib.h:113:7:

  113 |      __THROW __attribute_pure__ __nonnull ((1)) __wur;
      |       1
Error: Invalid character in name at (1)
/usr/include/stdlib.h:119:7:

  119 |      __THROW __nonnull ((1));
      |       1
Error: Invalid character in name at (1)
/usr/include/stdlib.h:128:7:

  128 |      __THROW __nonnull ((1));
      |       1
Error: Invalid character in name at (1)
/usr/include/stdlib.h:178:7:

  178 |      __THROW __nonnull ((1));
      |       1
Error: Invalid character in name at (1)
/usr/include/stdlib.h:182:7:

  182 |      __THROW __nonnull ((1));
      |       1
Error: Invalid character in name at (1)
/usr/include/stdlib.h:186:2:

  186 | __extension__
      |  1
Error: Invalid character in name at (1)
/usr/include/stdlib.h:189:7:

  189 |      __THROW __nonnull ((1));
      |       1
Error: Invalid character in name at (1)
/usr/include/stdlib.h:191:2:

  191 | __extension__
      |  1
Error: Invalid character in name at (1)
/usr/include/stdlib.h:194:7:

  194 |      __THROW __nonnull ((1));
      |       1
Error: Invalid character in name at (1)
/usr/include/stdlib.h:199:2:

  199 | __extension__
      |  1
Error: Invalid character in name at (1)
/usr/include/stdlib.h:202:7:

  202 |      __THROW __nonnull ((1));
      |       1
Error: Invalid character in name at (1)
/usr/include/stdlib.h:204:2:

  204 | __extension__
      |  1
Error: Invalid character in name at (1)
/usr/include/stdlib.h:207:7:

  207 |      __THROW __nonnull ((1));
      |       1
Error: Invalid character in name at (1)
/usr/include/stdlib.h:361:2:

  361 | __NTH (atoi (const char *__nptr))
      |  1
Error: Invalid character in name at (1)
/usr/include/stdlib.h:362:1:

  362 | {
      | 1
Error: Invalid character in name at (1)
/usr/include/stdlib.h:363:9:

  363 |   return (int) strtol (__nptr, (char **) NULL, 10);
      |         1
Error: Alternate RETURN statement at (1) is only allowed within a SUBROUTINE
/usr/include/stdlib.h:364:1:

  364 | }
      | 1
Error: Invalid character in name at (1)
/usr/include/stdlib.h:366:2:

  366 | __NTH (atol (const char *__nptr))
      |  1
Error: Invalid character in name at (1)
/usr/include/stdlib.h:367:1:

  367 | {
      | 1
Error: Invalid character in name at (1)
/usr/include/stdlib.h:368:9:

  368 |   return strtol (__nptr, (char **) NULL, 10);
      |         1
Error: Alternate RETURN statement at (1) is only allowed within a SUBROUTINE
/usr/include/stdlib.h:369:1:

  369 | }
      | 1
Error: Invalid character in name at (1)
/usr/include/stdlib.h:372:2:

  372 | __extension__ __extern_inline long long int
      |  1
Error: Invalid character in name at (1)
/usr/include/stdlib.h:373:2:

  373 | __NTH (atoll (const char *__nptr))
      |  1
Error: Invalid character in name at (1)
/usr/include/stdlib.h:374:1:

  374 | {
      | 1
Error: Invalid character in name at (1)
/usr/include/stdlib.h:375:9:

  375 |   return strtoll (__nptr, (char **) NULL, 10);
      |         1
Error: Alternate RETURN statement at (1) is only allowed within a SUBROUTINE
/usr/include/stdlib.h:376:1:

  376 | }
      | 1
Error: Invalid character in name at (1)
/usr/include/stdlib.h:389:7:

  389 |      __THROW __attribute_pure__ __nonnull ((1)) __wur;
      |       1
Error: Invalid character in name at (1)
/usr/include/sys/types.h:33:5:

   33 | typedef __u_char u_char;
      |     1
Error: Mangled derived type definition at (1)
/usr/include/sys/types.h:34:5:

   34 | typedef __u_short u_short;
      |     1
Error: Mangled derived type definition at (1)
/usr/include/sys/types.h:35:5:

   35 | typedef __u_int u_int;
      |     1
Error: Mangled derived type definition at (1)
/usr/include/sys/types.h:36:5:

   36 | typedef __u_long u_long;
      |     1
Error: Mangled derived type definition at (1)
/usr/include/sys/types.h:37:5:

   37 | typedef __quad_t quad_t;
      |     1
Error: Mangled derived type definition at (1)
/usr/include/sys/types.h:38:5:

   38 | typedef __u_quad_t u_quad_t;
      |     1
Error: Mangled derived type definition at (1)
/usr/include/sys/types.h:39:5:

   39 | typedef __fsid_t fsid_t;
      |     1
Error: Mangled derived type definition at (1)
/usr/include/sys/types.h:42:5:

   42 | typedef __loff_t loff_t;
      |     1
Error: Mangled derived type definition at (1)
/usr/include/sys/types.h:47:5:

   47 | typedef __ino_t ino_t;
      |     1
Error: Mangled derived type definition at (1)
/usr/include/sys/types.h:59:5:

   59 | typedef __dev_t dev_t;
      |     1
Error: Mangled derived type definition at (1)
/usr/include/sys/types.h:64:5:

   64 | typedef __gid_t gid_t;
      |     1
Error: Mangled derived type definition at (1)
/usr/include/sys/types.h:69:5:

   69 | typedef __mode_t mode_t;
      |     1
Error: Mangled derived type definition at (1)
/usr/include/sys/types.h:74:5:

   74 | typedef __nlink_t nlink_t;
      |     1
Error: Mangled derived type definition at (1)
/usr/include/sys/types.h:79:5:

   79 | typedef __uid_t uid_t;
      |     1
Error: Mangled derived type definition at (1)
/usr/include/sys/types.h:97:5:

   97 | typedef __pid_t pid_t;
      |     1
Error: Mangled derived type definition at (1)
/usr/include/sys/types.h:103:5:

  103 | typedef __id_t id_t;
      |     1
Error: Mangled derived type definition at (1)
/usr/include/sys/types.h:114:5:

  114 | typedef __daddr_t daddr_t;
      |     1
Error: Mangled derived type definition at (1)
/usr/include/sys/types.h:115:5:

  115 | typedef __caddr_t caddr_t;
      |     1
Error: Mangled derived type definition at (1)
/usr/include/sys/types.h:121:5:

  121 | typedef __key_t key_t;
      |     1
Error: Mangled derived type definition at (1)
/usr/include/bits/types/clock_t.h:7:5:

    7 | typedef __clock_t clock_t;
      |     1
Error: Mangled derived type definition at (1)
/usr/include/bits/types/clockid_t.h:7:5:

    7 | typedef __clockid_t clockid_t;
      |     1
Error: Mangled derived type definition at (1)
/usr/include/bits/types/time_t.h:7:5:

    7 | typedef __time_t time_t;
      |     1
Error: Mangled derived type definition at (1)
/usr/include/bits/types/timer_t.h:7:5:

    7 | typedef __timer_t timer_t;
      |     1
Error: Mangled derived type definition at (1)
/usr/include/sys/types.h:148:5:

  148 | typedef unsigned long int ulong;
      |     1
Error: Mangled derived type definition at (1)
/usr/include/sys/types.h:149:5:

  149 | typedef unsigned short int ushort;
      |     1
Error: Mangled derived type definition at (1)
/usr/include/sys/types.h:150:5:

  150 | typedef unsigned int uint;
      |     1
Error: Mangled derived type definition at (1)
/usr/include/bits/stdint-intn.h:24:5:

   24 | typedef __int8_t int8_t;
      |     1
Error: Mangled derived type definition at (1)
/usr/include/bits/stdint-intn.h:25:5:

   25 | typedef __int16_t int16_t;
      |     1
Error: Mangled derived type definition at (1)
/usr/include/bits/stdint-intn.h:26:5:

   26 | typedef __int32_t int32_t;
      |     1
Error: Mangled derived type definition at (1)
/usr/include/bits/stdint-intn.h:27:5:

   27 | typedef __int64_t int64_t;
      |     1
Error: Mangled derived type definition at (1)
/usr/include/sys/types.h:158:5:

  158 | typedef __uint8_t u_int8_t;
      |     1
Error: Mangled derived type definition at (1)
/usr/include/sys/types.h:159:5:

  159 | typedef __uint16_t u_int16_t;
      |     1
Error: Mangled derived type definition at (1)
/usr/include/sys/types.h:160:5:

  160 | typedef __uint32_t u_int32_t;
      |     1
Error: Mangled derived type definition at (1)
/usr/include/sys/types.h:161:5:

  161 | typedef __uint64_t u_int64_t;
      |     1
Error: Mangled derived type definition at (1)
/usr/include/sys/types.h:164:5:

  164 | typedef int register_t __attribute__ ((__mode__ (__word__)));
      |     1
Error: Mangled derived type definition at (1)
/usr/include/bits/byteswap.h:33:7:

   33 | static __inline __uint16_t
      |       1
Error: STATIC at (1) is a DEC extension, enable with '-fdec-static'
/usr/include/bits/byteswap.h:34:2:

   34 | __bswap_16 (__uint16_t __bsx)
      |  1
Error: Invalid character in name at (1)
/usr/include/bits/byteswap.h:35:1:

   35 | {
      | 1
Error: Invalid character in name at (1)
/usr/include/bits/byteswap.h:37:9:

   37 |   return __builtin_bswap16 (__bsx);
      |         1
Error: Alternate RETURN statement at (1) is only allowed within a SUBROUTINE
/usr/include/bits/byteswap.h:41:1:

   41 | }
      | 1
Error: Invalid character in name at (1)
/usr/include/bits/byteswap.h:48:7:

   48 | static __inline __uint32_t
      |       1
Error: STATIC at (1) is a DEC extension, enable with '-fdec-static'
/usr/include/bits/byteswap.h:49:2:

   49 | __bswap_32 (__uint32_t __bsx)
      |  1
Error: Invalid character in name at (1)
/usr/include/bits/byteswap.h:50:1:

   50 | {
      | 1
Error: Invalid character in name at (1)
/usr/include/bits/byteswap.h:52:9:

   52 |   return __builtin_bswap32 (__bsx);
      |         1
Error: Alternate RETURN statement at (1) is only allowed within a SUBROUTINE
/usr/include/bits/byteswap.h:56:1:

   56 | }
      | 1
Error: Invalid character in name at (1)
/usr/include/bits/byteswap.h:69:2:

   69 | __extension__ static __inline __uint64_t
      |  1
Error: Invalid character in name at (1)
/usr/include/bits/byteswap.h:70:2:

   70 | __bswap_64 (__uint64_t __bsx)
      |  1
Error: Invalid character in name at (1)
/usr/include/bits/byteswap.h:71:1:

   71 | {
      | 1
Error: Invalid character in name at (1)
/usr/include/bits/byteswap.h:73:9:

   73 |   return __builtin_bswap64 (__bsx);
      |         1
Error: Alternate RETURN statement at (1) is only allowed within a SUBROUTINE
/usr/include/bits/byteswap.h:77:1:

   77 | }
      | 1
Error: Invalid character in name at (1)
/usr/include/bits/uintn-identity.h:32:7:

   32 | static __inline __uint16_t
      |       1
Error: STATIC at (1) is a DEC extension, enable with '-fdec-static'
/usr/include/bits/uintn-identity.h:33:2:

   33 | __uint16_identity (__uint16_t __x)
      |  1
Error: Invalid character in name at (1)
/usr/include/bits/uintn-identity.h:34:1:

   34 | {
      | 1
Error: Invalid character in name at (1)
/usr/include/bits/uintn-identity.h:35:9:

   35 |   return __x;
      |         1
Error: Alternate RETURN statement at (1) is only allowed within a SUBROUTINE
/usr/include/bits/uintn-identity.h:36:1:

   36 | }
      | 1
Error: Invalid character in name at (1)
/usr/include/bits/uintn-identity.h:38:7:

   38 | static __inline __uint32_t
      |       1
Error: STATIC at (1) is a DEC extension, enable with '-fdec-static'
/usr/include/bits/uintn-identity.h:39:2:

   39 | __uint32_identity (__uint32_t __x)
      |  1
Error: Invalid character in name at (1)
/usr/include/bits/uintn-identity.h:40:1:

   40 | {
      | 1
Error: Invalid character in name at (1)
/usr/include/bits/uintn-identity.h:41:9:

   41 |   return __x;
      |         1
Error: Alternate RETURN statement at (1) is only allowed within a SUBROUTINE
/usr/include/bits/uintn-identity.h:42:1:

   42 | }
      | 1
Error: Invalid character in name at (1)
/usr/include/bits/uintn-identity.h:44:7:

   44 | static __inline __uint64_t
      |       1
Error: STATIC at (1) is a DEC extension, enable with '-fdec-static'
/usr/include/bits/uintn-identity.h:45:2:

   45 | __uint64_identity (__uint64_t __x)
      |  1
Error: Invalid character in name at (1)
/usr/include/bits/uintn-identity.h:46:1:

   46 | {
      | 1
Error: Invalid character in name at (1)
/usr/include/bits/uintn-identity.h:47:9:

   47 |   return __x;
      |         1
Error: Alternate RETURN statement at (1) is only allowed within a SUBROUTINE
/usr/include/bits/uintn-identity.h:48:1:

   48 | }
      | 1
Error: Invalid character in name at (1)
/usr/include/bits/types/__sigset_t.h:5:5:

    5 | typedef struct
      |     1
Error: Mangled derived type definition at (1)
/usr/include/bits/types/__sigset_t.h:6:1:

    6 | {
      | 1
Error: Invalid character in name at (1)
/usr/include/bits/types/__sigset_t.h:8:2:

    8 | } __sigset_t;
      |  1
Error: Invalid character in name at (1)
/usr/include/bits/types/sigset_t.h:7:5:

    7 | typedef __sigset_t sigset_t;
      |     1
Error: Mangled derived type definition at (1)
/usr/include/bits/types/struct_timeval.h:9:1:

    9 | {
      | 1
Error: Invalid character in name at (1)
/usr/include/bits/types/struct_timeval.h:10:4:

   10 |   __time_t tv_sec;              /* Seconds.  */
      |    1
Error: Invalid character in name at (1)
/usr/include/bits/types/struct_timeval.h:11:4:

   11 |   __suseconds_t tv_usec;        /* Microseconds.  */
      |    1
Error: Invalid character in name at (1)
/usr/include/bits/types/struct_timeval.h:12:2:

   12 | };
      |  1
Error: Invalid character in name at (1)
/usr/include/bits/types/struct_timespec.h:11:1:

   11 | {
      | 1
Error: Invalid character in name at (1)
/usr/include/bits/types/struct_timespec.h:12:4:

   12 |   __time_t tv_sec;              /* Seconds.  */
      |    1
Error: Invalid character in name at (1)
/usr/include/bits/types/struct_timespec.h:16:4:

   16 |   __syscall_slong_t tv_nsec;    /* Nanoseconds.  */
      |    1
Error: Invalid character in name at (1)
/usr/include/bits/types/struct_timespec.h:26:2:

   26 | };
      |  1
Error: Invalid character in name at (1)
/usr/include/sys/select.h:43:5:

   43 | typedef __suseconds_t suseconds_t;
      |     1
Error: Mangled derived type definition at (1)
/usr/include/sys/select.h:49:5:

   49 | typedef long int __fd_mask;
      |     1
Error: Mangled derived type definition at (1)
/usr/include/sys/select.h:59:5:

   59 | typedef struct
      |     1
Error: Mangled derived type definition at (1)
/usr/include/sys/select.h:60:3:

   60 |   {
      |   1
Error: Invalid character in name at (1)
/usr/include/sys/select.h:67:6:

   67 |     __fd_mask __fds_bits[__FD_SETSIZE / __NFDBITS];
      |      1
Error: Invalid character in name at (1)
/usr/include/sys/select.h:70:4:

   70 |   } fd_set;
      |    1
Error: Invalid character in name at (1)
/usr/include/sys/select.h:77:5:

   77 | typedef __fd_mask fd_mask;
      |     1
Error: Mangled derived type definition at (1)
/usr/include/sys/types.h:185:5:

  185 | typedef __blksize_t blksize_t;
      |     1
Error: Mangled derived type definition at (1)
/usr/include/sys/types.h:192:5:

  192 | typedef __blkcnt_t blkcnt_t;     /* Type to count number of disk blocks.  */
      |     1
Error: Mangled derived type definition at (1)
/usr/include/sys/types.h:196:5:

  196 | typedef __fsblkcnt_t fsblkcnt_t; /* Type to count file system blocks.  */
      |     1
Error: Mangled derived type definition at (1)
/usr/include/sys/types.h:200:5:

  200 | typedef __fsfilcnt_t fsfilcnt_t; /* Type to count file system inodes.  */
      |     1
Error: Mangled derived type definition at (1)
/usr/include/bits/thread-shared-types.h:49:5:

   49 | typedef struct __pthread_internal_list
      |     1
Error: Mangled derived type definition at (1)
/usr/include/bits/thread-shared-types.h:50:1:

   50 | {
      | 1
Error: Invalid character in name at (1)
/usr/include/bits/thread-shared-types.h:53:2:

   53 | } __pthread_list_t;
      |  1
Error: Invalid character in name at (1)
/usr/include/bits/thread-shared-types.h:55:5:

   55 | typedef struct __pthread_internal_slist
      |     1
Error: Mangled derived type definition at (1)
/usr/include/bits/thread-shared-types.h:56:1:

   56 | {
      | 1
Error: Invalid character in name at (1)
/usr/include/bits/thread-shared-types.h:58:2:

   58 | } __pthread_slist_t;
      |  1
Error: Invalid character in name at (1)
/usr/include/bits/struct_mutex.h:23:1:

   23 | {
      | 1
Error: Invalid character in name at (1)
/usr/include/bits/struct_mutex.h:40:4:

   40 |   __extension__ union
      |    1
Error: Invalid character in name at (1)
/usr/include/bits/struct_mutex.h:41:3:

   41 |   {
      |   1
Error: Invalid character in name at (1)
/usr/include/bits/struct_mutex.h:43:5:

   43 |     {
      |     1
Error: Invalid character in name at (1)
/usr/include/bits/struct_mutex.h:48:6:

   48 |     } __elision_data;
      |      1
Error: Invalid character in name at (1)
/usr/include/bits/struct_mutex.h:49:6:

   49 |     __pthread_slist_t __list;
      |      1
Error: Invalid character in name at (1)
/usr/include/bits/struct_mutex.h:50:4:

   50 |   };
      |    1
Error: Invalid character in name at (1)
/usr/include/bits/struct_mutex.h:53:2:

   53 | };
      |  1
Error: Invalid character in name at (1)
/usr/include/bits/struct_rwlock.h:24:1:

   24 | {
      | 1
Error: Invalid character in name at (1)
/usr/include/bits/struct_rwlock.h:55:2:

   55 | };
      |  1
Error: Invalid character in name at (1)
/usr/include/bits/thread-shared-types.h:93:1:

[...]
configure:7915: checking for unistd.h
configure:7915: gcc -c -g -O2  conftest.c >&5
configure:7915: $? = 0
configure:7915: result: yes
configure:7940: checking for emmintrin.h
configure:7940: gcc -c -g -O2  conftest.c >&5
configure:7940: $? = 0
configure:7940: result: yes
configure:7948: checking for xmmintrin.h
configure:7948: gcc -c -g -O2  conftest.c >&5
configure:7948: $? = 0
configure:7948: result: yes
configure:7957: checking for err.h
configure:7957: gcc -c -g -O2  conftest.c >&5
configure:7957: $? = 0
configure:7957: result: yes
configure:8046: checking for g++
configure:8067: found /opt/gcc/12.1.0/bin/g++
configure:8078: result: g++
configure:8105: checking for C++ compiler version
configure:8114: g++ --version >&5
g++ (GCC) 12.1.0 20220506 (HPE)
Copyright (C) 2022 Free Software Foundation, Inc.
This is free software; see the source for copying conditions.  There is NO
warranty; not even for MERCHANTABILITY or FITNESS FOR A PARTICULAR PURPOSE.

configure:8125: $? = 0
configure:8114: g++ -v >&5
Using built-in specs.
COLLECT_GCC=/opt/gcc/12.1.0/bin/../snos/bin/g++
COLLECT_LTO_WRAPPER=/opt/gcc/12.1.0/snos/libexec/gcc/x86_64-suse-linux/12.1.0/lto-wrapper
Target: x86_64-suse-linux
Configured with: ../cray-gcc-12.1.0-202211021830.d2288ea063c1a/configure --prefix=/opt/gcc/12.1.0/snos --disable-nls --libdir=/opt/gcc/12.1.0/snos/lib --enable-languages=c,c++,fortran --with-gxx-include-dir=/opt/gcc/12.1.0/snos/include/g++ --with-slibdir=/opt/gcc/12.1.0/snos/lib --with-system-zlib --enable-shared --enable-__cxa_atexit --build=x86_64-suse-linux --with-ppl --with-cloog --disable-multilib
Thread model: posix
Supported LTO compression algorithms: zlib
gcc version 12.1.0 20220506 (HPE) (GCC) 
configure:8125: $? = 0
configure:8114: g++ -V >&5
g++: error: unrecognized command-line option '-V'
g++: fatal error: no input files
compilation terminated.
configure:8125: $? = 1
configure:8114: g++ -qversion >&5
g++: error: unrecognized command-line option '-qversion'; did you mean '--version'?
g++: fatal error: no input files
compilation terminated.
configure:8125: $? = 1
configure:8129: checking whether the compiler supports GNU C++
configure:8157: g++ -c   conftest.cpp >&5
configure:8157: $? = 0
configure:8167: result: yes
configure:8178: checking whether g++ accepts -g
configure:8207: g++ -c -g  conftest.cpp >&5
configure:8207: $? = 0
configure:8267: result: yes
configure:8287: checking for g++ option to enable C++11 features
configure:8302: g++  -c -g -O2  conftest.cpp >&5
conftest.cpp: In function 'int main(int, char**)':
conftest.cpp:191:25: warning: empty parentheses were disambiguated as a function declaration [-Wvexing-parse]
  191 |   cxx11test::delegate d2();
      |                         ^~
conftest.cpp:191:25: note: remove parentheses to default-initialize a variable
  191 |   cxx11test::delegate d2();
      |                         ^~
      |                         --
conftest.cpp:191:25: note: or replace parentheses with braces to value-initialize a variable
configure:8302: $? = 0
configure:8320: result: none needed
configure:8390: checking how to run the C++ preprocessor
configure:8412: g++ -E  conftest.cpp
configure:8412: $? = 0
configure:8427: g++ -E  conftest.cpp
conftest.cpp:25:10: fatal error: ac_nonexistent.h: No such file or directory
   25 | #include <ac_nonexistent.h>
      |          ^~~~~~~~~~~~~~~~~~
compilation terminated.
configure:8427: $? = 1
configure: failed program was:
| /* confdefs.h */
| #define PACKAGE_NAME "Specfem3D"
| #define PACKAGE_TARNAME "Specfem3D"
| #define PACKAGE_VERSION "4.0.0"
| #define PACKAGE_STRING "Specfem3D 4.0.0"
| #define PACKAGE_BUGREPORT "see the wiki"
| #define PACKAGE_URL ""
| #define FC_FUNC(name,NAME) name ## _
| #define FC_FUNC_(name,NAME) name ## _
| #define HAVE_SCOTCH 1
| #define HAVE_STDIO_H 1
| #define HAVE_STDLIB_H 1
| #define HAVE_STRING_H 1
| #define HAVE_INTTYPES_H 1
| #define HAVE_STDINT_H 1
| #define HAVE_STRINGS_H 1
| #define HAVE_SYS_STAT_H 1
| #define HAVE_SYS_TYPES_H 1
| #define HAVE_UNISTD_H 1
| #define STDC_HEADERS 1
| #define HAVE_EMMINTRIN 1
| #define HAVE_XMMINTRIN 1
| #define HAVE_ERR 1
| /* end confdefs.h.  */
| #include <ac_nonexistent.h>
configure:8454: result: g++ -E
configure:8468: g++ -E  conftest.cpp
configure:8468: $? = 0
configure:8483: g++ -E  conftest.cpp
conftest.cpp:25:10: fatal error: ac_nonexistent.h: No such file or directory
   25 | #include <ac_nonexistent.h>
      |          ^~~~~~~~~~~~~~~~~~
compilation terminated.
configure:8483: $? = 1
configure: failed program was:
| /* confdefs.h */
| #define PACKAGE_NAME "Specfem3D"
| #define PACKAGE_TARNAME "Specfem3D"
| #define PACKAGE_VERSION "4.0.0"
| #define PACKAGE_STRING "Specfem3D 4.0.0"
| #define PACKAGE_BUGREPORT "see the wiki"
| #define PACKAGE_URL ""
| #define FC_FUNC(name,NAME) name ## _
| #define FC_FUNC_(name,NAME) name ## _
| #define HAVE_SCOTCH 1
| #define HAVE_STDIO_H 1
| #define HAVE_STDLIB_H 1
| #define HAVE_STRING_H 1
| #define HAVE_INTTYPES_H 1
| #define HAVE_STDINT_H 1
| #define HAVE_STRINGS_H 1
| #define HAVE_SYS_STAT_H 1
| #define HAVE_SYS_TYPES_H 1
| #define HAVE_UNISTD_H 1
| #define STDC_HEADERS 1
| #define HAVE_EMMINTRIN 1
| #define HAVE_XMMINTRIN 1
| #define HAVE_ERR 1
| /* end confdefs.h.  */
| #include <ac_nonexistent.h>
configure:8542: checking for mpi.h
configure:8542: g++ -c -g -O2  -I/opt/cray/pe/mpt/7.7.20/gni/mpich-gnu/8.2/include  conftest.cpp >&5
configure:8542: $? = 0
configure:8542: result: yes
configure:8917: checking how to run the C preprocessor
configure:8943: gcc -E  conftest.c
configure:8943: $? = 0
configure:8958: gcc -E  conftest.c
conftest.c:25:10: fatal error: ac_nonexistent.h: No such file or directory
   25 | #include <ac_nonexistent.h>
      |          ^~~~~~~~~~~~~~~~~~
compilation terminated.
configure:8958: $? = 1
configure: failed program was:
| /* confdefs.h */
| #define PACKAGE_NAME "Specfem3D"
| #define PACKAGE_TARNAME "Specfem3D"
| #define PACKAGE_VERSION "4.0.0"
| #define PACKAGE_STRING "Specfem3D 4.0.0"
| #define PACKAGE_BUGREPORT "see the wiki"
| #define PACKAGE_URL ""
| #define FC_FUNC(name,NAME) name ## _
| #define FC_FUNC_(name,NAME) name ## _
| #define HAVE_SCOTCH 1
| #define HAVE_STDIO_H 1
| #define HAVE_STDLIB_H 1
| #define HAVE_STRING_H 1
| #define HAVE_INTTYPES_H 1
| #define HAVE_STDINT_H 1
| #define HAVE_STRINGS_H 1
| #define HAVE_SYS_STAT_H 1
| #define HAVE_SYS_TYPES_H 1
| #define HAVE_UNISTD_H 1
| #define STDC_HEADERS 1
| #define HAVE_EMMINTRIN 1
| #define HAVE_XMMINTRIN 1
| #define HAVE_ERR 1
| /* end confdefs.h.  */
| #include <ac_nonexistent.h>
configure:8985: result: gcc -E
configure:8999: gcc -E  conftest.c
configure:8999: $? = 0
configure:9014: gcc -E  conftest.c
conftest.c:25:10: fatal error: ac_nonexistent.h: No such file or directory
   25 | #include <ac_nonexistent.h>
      |          ^~~~~~~~~~~~~~~~~~
compilation terminated.
configure:9014: $? = 1
configure: failed program was:
| /* confdefs.h */
| #define PACKAGE_NAME "Specfem3D"
| #define PACKAGE_TARNAME "Specfem3D"
| #define PACKAGE_VERSION "4.0.0"
| #define PACKAGE_STRING "Specfem3D 4.0.0"
| #define PACKAGE_BUGREPORT "see the wiki"
| #define PACKAGE_URL ""
| #define FC_FUNC(name,NAME) name ## _
| #define FC_FUNC_(name,NAME) name ## _
| #define HAVE_SCOTCH 1
| #define HAVE_STDIO_H 1
| #define HAVE_STDLIB_H 1
| #define HAVE_STRING_H 1
| #define HAVE_INTTYPES_H 1
| #define HAVE_STDINT_H 1
| #define HAVE_STRINGS_H 1
| #define HAVE_SYS_STAT_H 1
| #define HAVE_SYS_TYPES_H 1
| #define HAVE_UNISTD_H 1
| #define STDC_HEADERS 1
| #define HAVE_EMMINTRIN 1
| #define HAVE_XMMINTRIN 1
| #define HAVE_ERR 1
| /* end confdefs.h.  */
| #include <ac_nonexistent.h>
configure:11695: checking for .git/config
configure:11709: result: yes
configure:11756: building from git repository
configure:12061: creating ./config.status

## ---------------------- ##
## Running config.status. ##
## ---------------------- ##

This file was extended by Specfem3D config.status 4.0.0, which was
generated by GNU Autoconf 2.71.  Invocation command line was

  CONFIG_FILES    = 
  CONFIG_HEADERS  = 
  CONFIG_LINKS    = 
  CONFIG_COMMANDS = 
  $ ./config.status 

on kay

config.status:980: creating Makefile
config.status:980: creating setup/constants.h
config.status:980: creating setup/constants_tomography.h
config.status:980: creating setup/precision.h
config.status:980: creating setup/config.fh
config.status:980: creating setup/version.fh
config.status:980: creating ./external_libs/scotch/src/Makefile.inc
config.status:980: creating DATA/Par_file
config.status:980: creating DATA/CMTSOLUTION
config.status:980: creating DATA/STATIONS
config.status:980: creating setup/config.h
config.status:1150: setup/config.h is unchanged
config.status:1164: executing bin commands
config.status:1164: executing obj commands
config.status:1164: executing DATA commands
config.status:1164: executing OUTPUT_FILES commands
config.status:1164: executing DATABASES_MPI commands
configure:13250: result: 
configure:13255: result: 
configure:13257: result: ./configure has completed and set up a default configuration to build.
configure:13259: result: 
configure:13261: result: You may wish to modify the following files before running a simulation:
configure:13263: result:   DATA/Par_file           Set parameters affecting the simulation.
configure:13265: result:   DATA/CMTSOLUTION        Set the source parameters before running the solver.
configure:13267: result:   DATA/STATIONS           Set the receiver stations before running the solver.
configure:13269: result: 

## ---------------- ##
## Cache variables. ##
## ---------------- ##

ac_cv_build=x86_64-unknown-linux-gnu
ac_cv_c_compiler_gnu=yes
ac_cv_cxx_compiler_gnu=yes
ac_cv_env_ADIOS2_CONFIG_set=
ac_cv_env_ADIOS2_CONFIG_value=
ac_cv_env_ADIOS_CONFIG_set=
ac_cv_env_ADIOS_CONFIG_value=
ac_cv_env_ASDF_LIBS_set=
ac_cv_env_ASDF_LIBS_value=
ac_cv_env_CCC_set=
ac_cv_env_CCC_value=
ac_cv_env_CC_set=
ac_cv_env_CC_value=
ac_cv_env_CFLAGS_set=
ac_cv_env_CFLAGS_value=
ac_cv_env_CPPFLAGS_set=
ac_cv_env_CPPFLAGS_value=
ac_cv_env_CPP_set=
ac_cv_env_CPP_value=
ac_cv_env_CUDA_FLAGS_set=
ac_cv_env_CUDA_FLAGS_value=
ac_cv_env_CUDA_INC_set=
ac_cv_env_CUDA_INC_value=
ac_cv_env_CUDA_LIB_set=
ac_cv_env_CUDA_LIB_value=
ac_cv_env_CXXCPP_set=
ac_cv_env_CXXCPP_value=
ac_cv_env_CXXFLAGS_set=
ac_cv_env_CXXFLAGS_value=
ac_cv_env_CXX_set=
ac_cv_env_CXX_value=
ac_cv_env_FCFLAGS_set=set
ac_cv_env_FCFLAGS_value='-g -O3 -fallow-argument-mismatch'
ac_cv_env_FC_set=set
ac_cv_env_FC_value=ftn
ac_cv_env_FLAGS_CHECK_set=
ac_cv_env_FLAGS_CHECK_value=
ac_cv_env_HIPCC_set=
ac_cv_env_HIPCC_value=
ac_cv_env_HIP_FLAGS_set=
ac_cv_env_HIP_FLAGS_value=
ac_cv_env_HIP_INC_set=
ac_cv_env_HIP_INC_value=
ac_cv_env_HIP_LIB_set=
ac_cv_env_HIP_LIB_value=
ac_cv_env_LDFLAGS_set=
ac_cv_env_LDFLAGS_value=
ac_cv_env_LIBS_set=
ac_cv_env_LIBS_value=
ac_cv_env_LOCAL_PATH_IS_ALSO_GLOBAL_set=
ac_cv_env_LOCAL_PATH_IS_ALSO_GLOBAL_value=
ac_cv_env_MPICC_set=
ac_cv_env_MPICC_value=
ac_cv_env_MPIFC_set=set
ac_cv_env_MPIFC_value=ftn
ac_cv_env_MPILIBS_set=
ac_cv_env_MPILIBS_value=
ac_cv_env_MPI_INC_set=set
ac_cv_env_MPI_INC_value=/opt/cray/pe/mpt/7.7.20/gni/mpich-gnu/8.2/include
ac_cv_env_NVCC_set=
ac_cv_env_NVCC_value=
ac_cv_env_OMP_FCFLAGS_set=
ac_cv_env_OMP_FCFLAGS_value=
ac_cv_env_OMP_LIB_set=
ac_cv_env_OMP_LIB_value=
ac_cv_env_SCOTCH_DIR_set=
ac_cv_env_SCOTCH_DIR_value=
ac_cv_env_SCOTCH_INCLUDEDIR_set=
ac_cv_env_SCOTCH_INCLUDEDIR_value=
ac_cv_env_SCOTCH_LIBDIR_set=
ac_cv_env_SCOTCH_LIBDIR_value=
ac_cv_env_USE_BUNDLED_SCOTCH_set=
ac_cv_env_USE_BUNDLED_SCOTCH_value=
ac_cv_env_YACC_set=
ac_cv_env_YACC_value=
ac_cv_env_YFLAGS_set=
ac_cv_env_YFLAGS_value=
ac_cv_env_build_alias_set=
ac_cv_env_build_alias_value=
ac_cv_env_host_alias_set=
ac_cv_env_host_alias_value=
ac_cv_env_target_alias_set=
ac_cv_env_target_alias_value=
ac_cv_fc_compiler_gnu=yes
ac_cv_fc_dummy_main=none
ac_cv_fc_freeform=none
ac_cv_fc_libs=' -L/opt/cray/pe/perftools/22.09.0/lib64 -L/opt/cray/dmapp/default/lib64 -L/opt/cray/pe/mpt/7.7.20/gni/mpich-gnu/8.2/lib -L/opt/cray/pe/libsci/22.05.1/GNU/8.1/x86_64/lib -L/opt/cray/rca/2.2.22-7.0.4.1_2.1__ged51428.ari/lib64 -L/opt/cray/pe/atp/3.14.13/lib -L/opt/cray/pe/perftools/22.09.0/libexec64 -L/opt/gcc/12.1.0/snos/lib/gcc/x86_64-suse-linux/12.1.0 -L/opt/gcc/12.1.0/snos/lib/gcc/x86_64-suse-linux/12.1.0/../../../../lib64 -L/lib/../lib64 -L/usr/lib/../lib64 -L/opt/gcc/12.1.0/snos/lib/gcc/x86_64-suse-linux/12.1.0/../../.. -lrca -lAtpSigHandler -lsci_gnu_82_mpi -lsci_gnu_82 -lmpich_gnu_82 -lmpichf90_gnu_82 -lgfortran -lquadmath -lpthread -lm'
ac_cv_fc_mangling='lower case, underscore, no extra underscore'
ac_cv_fc_module_ext=mod
ac_cv_fc_module_flag=-I
ac_cv_fc_module_output_flag=-J
ac_cv_fc_pp_define=-D
ac_cv_fc_pp_srcext_F90=none
ac_cv_fc_pp_srcext_F=none
ac_cv_fc_srcext_f90=none
ac_cv_file__git_config=yes
ac_cv_fortran_dummy_main=none
ac_cv_header_emmintrin_h=yes
ac_cv_header_err_h=yes
ac_cv_header_inttypes_h=yes
ac_cv_header_mpi_h=yes
ac_cv_header_stdint_h=yes
ac_cv_header_stdio_h=yes
ac_cv_header_stdlib_h=yes
ac_cv_header_string_h=yes
ac_cv_header_strings_h=yes
ac_cv_header_sys_stat_h=yes
ac_cv_header_sys_types_h=yes
ac_cv_header_unistd_h=yes
ac_cv_header_xmmintrin_h=yes
ac_cv_host=x86_64-unknown-linux-gnu
ac_cv_lib_lex='not found'
ac_cv_lib_scotch_scotchfarchinit_=no
ac_cv_objext=o
ac_cv_prog_CPP='gcc -E'
ac_cv_prog_CXXCPP='g++ -E'
ac_cv_prog_LEX=flex
ac_cv_prog_YACC='bison -y'
ac_cv_prog_ac_ct_CC=gcc
ac_cv_prog_ac_ct_CXX=g++
ac_cv_prog_cc_c11=
ac_cv_prog_cc_g=yes
ac_cv_prog_cc_stdc=
ac_cv_prog_cxx_11=no
ac_cv_prog_cxx_cxx11=
ac_cv_prog_cxx_g=yes
ac_cv_prog_cxx_stdcxx=
ac_cv_prog_fc_g=yes
ac_cv_prog_fc_v=-v
ac_cv_prog_lex_root=lex.yy
ac_cv_search_yywrap=no

## ----------------- ##
## Output variables. ##
## ----------------- ##

ADIOS2_CFLAGS=''
ADIOS2_CLIBS=''
ADIOS2_CONFIG=''
ADIOS2_FCFLAGS=''
ADIOS2_LIBS=''
ADIOS_CONFIG=''
ADIOS_FCFLAGS=''
ADIOS_LIBS=''
ASDF_LIBS=''
CC='gcc'
CFLAGS='-g -O2'
COND_ADIOS2_FALSE=''
COND_ADIOS2_TRUE='#'
COND_ADIOS_FALSE=''
COND_ADIOS_TRUE='#'
COND_ASDF_FALSE=''
COND_ASDF_TRUE='#'
COND_CUDA10_FALSE=''
COND_CUDA10_TRUE='#'
COND_CUDA11_FALSE=''
COND_CUDA11_TRUE='#'
COND_CUDA4_FALSE=''
COND_CUDA4_TRUE='#'
COND_CUDA5_FALSE=''
COND_CUDA5_TRUE='#'
COND_CUDA6_FALSE=''
COND_CUDA6_TRUE='#'
COND_CUDA7_FALSE=''
COND_CUDA7_TRUE='#'
COND_CUDA8_FALSE=''
COND_CUDA8_TRUE='#'
COND_CUDA9_FALSE=''
COND_CUDA9_TRUE='#'
COND_CUDA_FALSE=''
COND_CUDA_PLUS_FALSE=''
COND_CUDA_PLUS_TRUE='#'
COND_CUDA_TRUE='#'
COND_DEBUG_FALSE=''
COND_DEBUG_TRUE='#'
COND_HIP_CUDA10_FALSE=''
COND_HIP_CUDA10_TRUE='#'
COND_HIP_CUDA11_FALSE=''
COND_HIP_CUDA11_TRUE='#'
COND_HIP_CUDA5_FALSE=''
COND_HIP_CUDA5_TRUE='#'
COND_HIP_CUDA6_FALSE=''
COND_HIP_CUDA6_TRUE='#'
COND_HIP_CUDA7_FALSE=''
COND_HIP_CUDA7_TRUE='#'
COND_HIP_CUDA8_FALSE=''
COND_HIP_CUDA8_TRUE='#'
COND_HIP_CUDA9_FALSE=''
COND_HIP_CUDA9_TRUE='#'
COND_HIP_FALSE=''
COND_HIP_MI100_FALSE=''
COND_HIP_MI100_TRUE='#'
COND_HIP_MI250_FALSE=''
COND_HIP_MI250_TRUE='#'
COND_HIP_MI25_FALSE=''
COND_HIP_MI25_TRUE='#'
COND_HIP_MI50_FALSE=''
COND_HIP_MI50_TRUE='#'
COND_HIP_MI8_FALSE=''
COND_HIP_MI8_TRUE='#'
COND_HIP_PLATFORM_AMD_FALSE=''
COND_HIP_PLATFORM_AMD_TRUE='#'
COND_HIP_PLATFORM_NVIDIA_FALSE=''
COND_HIP_PLATFORM_NVIDIA_TRUE='#'
COND_HIP_TRUE='#'
COND_MPI_FALSE='#'
COND_MPI_TRUE=''
COND_OMP_FALSE=''
COND_OMP_TRUE='#'
COND_SCOTCH_FALSE='#'
COND_SCOTCH_TRUE=''
COND_VECTORIZATION_FALSE=''
COND_VECTORIZATION_TRUE='#'
COND_VTK_FALSE=''
COND_VTK_TRUE='#'
CONFIGURE_FLAGS='FC=ftn FCFLAGS=-g -O3 -fallow-argument-mismatch'
CPP='gcc -E'
CPPFLAGS=''
CUDA_CPPFLAGS=''
CUDA_FLAGS=''
CUDA_INC=''
CUDA_LDFLAGS=''
CUDA_LIB=''
CUDA_LIBS=''
CUSTOM_MPI_TYPE='MPI_REAL'
CUSTOM_REAL='SIZE_REAL'
CXX='g++'
CXXCPP='g++ -E'
CXXFLAGS='-g -O2'
DEFS='-DHAVE_CONFIG_H'
ECHO_C=''
ECHO_N='-n'
ECHO_T=''
EXEEXT=''
FC='ftn'
FCENV=''
FCFLAGS='-g -O3 -fallow-argument-mismatch'
FCFLAGS_F90=''
FCFLAGS_F=''
FCFLAGS_f90='-J./obj -I./obj -I. '
FCLIBS=' -L/opt/cray/pe/perftools/22.09.0/lib64 -L/opt/cray/dmapp/default/lib64 -L/opt/cray/pe/mpt/7.7.20/gni/mpich-gnu/8.2/lib -L/opt/cray/pe/libsci/22.05.1/GNU/8.1/x86_64/lib -L/opt/cray/rca/2.2.22-7.0.4.1_2.1__ged51428.ari/lib64 -L/opt/cray/pe/atp/3.14.13/lib -L/opt/cray/pe/perftools/22.09.0/libexec64 -L/opt/gcc/12.1.0/snos/lib/gcc/x86_64-suse-linux/12.1.0 -L/opt/gcc/12.1.0/snos/lib/gcc/x86_64-suse-linux/12.1.0/../../../../lib64 -L/lib/../lib64 -L/usr/lib/../lib64 -L/opt/gcc/12.1.0/snos/lib/gcc/x86_64-suse-linux/12.1.0/../../.. -lrca -lAtpSigHandler -lsci_gnu_82_mpi -lsci_gnu_82 -lmpich_gnu_82 -lmpichf90_gnu_82 -lgfortran -lquadmath -lpthread -lm'
FC_DEFINE='-D'
FC_MODDIR='./obj'
FC_MODEXT='mod'
FC_MODINC='-I'
FC_MODOUT='-J'
FLAGS_CHECK='-std=f2003 -fimplicit-none -fmax-errors=10 -pedantic -pedantic-errors -Waliasing -Wampersand -Wcharacter-truncation -Wline-truncation -Wsurprising -Wno-tabs -Wunderflow -ffpe-trap=invalid,zero,overflow -Wunused -O3 -finline-functions'
GIT_COMMIT_VERSION='5275e1f01a4b1397bb2efb0280091581d8527c84'
GIT_DATE_VERSION='2023-03-14 17:36:22 +0100'
GIT_PACKAGE_VERSION='v4.0.0-1-g5275e1f0'
HIPCC=''
HIPCC_PROG=''
HIPCONFIG_PROG=''
HIP_CPPFLAGS=''
HIP_FLAGS=''
HIP_INC=''
HIP_LDFLAGS=''
HIP_LIB=''
HIP_LIBS=''
LDFLAGS=''
LEX=':'
LEXLIB=''
LEX_OUTPUT_ROOT='lex.yy'
LIBOBJS=''
LIBS=''
LOCAL_PATH_IS_ALSO_GLOBAL='true'
LTLIBOBJS=''
MPICC='mpicc'
MPIFC='ftn'
MPILIBS=''
MPI_INC='/opt/cray/pe/mpt/7.7.20/gni/mpich-gnu/8.2/include'
MPI_INCLUDES=' -I/opt/cray/pe/mpt/7.7.20/gni/mpich-gnu/8.2/include'
NVCC=''
NVCC_PROG=''
OBJEXT='o'
OMP_FCFLAGS='-fopenmp'
OMP_LIB=''
PACKAGE_BUGREPORT='see the wiki'
PACKAGE_NAME='Specfem3D'
PACKAGE_STRING='Specfem3D 4.0.0'
PACKAGE_TARNAME='Specfem3D'
PACKAGE_URL=''
PACKAGE_VERSION='4.0.0'
PATH_SEPARATOR=':'
PTHREAD_CC='gcc'
PTHREAD_CFLAGS='-pthread'
PTHREAD_LIBS=''
SCOTCH_DIR='./external_libs/scotch'
SCOTCH_INCLUDEDIR='./external_libs/scotch/include'
SCOTCH_LIBDIR='./external_libs/scotch/lib'
SHELL='/bin/sh'
USE_BUNDLED_SCOTCH='1'
VTK_INCLUDES=''
VTK_LDFLAGS=''
VTK_LIBS=''
VTK_MAJOR=''
YACC='bison -y'
YFLAGS=''
ac_ct_CC='gcc'
ac_ct_CXX='g++'
ac_ct_FC=''
ac_empty=''
acx_pthread_config=''
bindir='${exec_prefix}/bin'
build='x86_64-unknown-linux-gnu'
build_alias=''
build_cpu='x86_64'
build_os='linux-gnu'
build_vendor='unknown'
datadir='${datarootdir}'
datarootdir='${prefix}/share'
docdir='${datarootdir}/doc/${PACKAGE_TARNAME}'
dvidir='${docdir}'
exec_prefix='${prefix}'
host='x86_64-unknown-linux-gnu'
host_alias=''
host_cpu='x86_64'
host_os='linux-gnu'
host_vendor='unknown'
htmldir='${docdir}'
includedir='${prefix}/include'
infodir='${datarootdir}/info'
libdir='${exec_prefix}/lib'
libexecdir='${exec_prefix}/libexec'
localedir='${datarootdir}/locale'
localstatedir='${prefix}/var'
mandir='${datarootdir}/man'
oldincludedir='/usr/include'
pdfdir='${docdir}'
prefix='/usr/local'
program_transform_name='s,x,x,'
psdir='${docdir}'
runstatedir='${localstatedir}/run'
sbindir='${exec_prefix}/sbin'
sharedstatedir='${prefix}/com'
srcdir='.'
sysconfdir='${prefix}/etc'
target_alias=''

## ----------- ##
## confdefs.h. ##
## ----------- ##

/* confdefs.h */
#define PACKAGE_NAME "Specfem3D"
#define PACKAGE_TARNAME "Specfem3D"
#define PACKAGE_VERSION "4.0.0"
#define PACKAGE_STRING "Specfem3D 4.0.0"
#define PACKAGE_BUGREPORT "see the wiki"
#define PACKAGE_URL ""
#define FC_FUNC(name,NAME) name ## _
#define FC_FUNC_(name,NAME) name ## _
#define HAVE_SCOTCH 1
#define HAVE_STDIO_H 1
#define HAVE_STDLIB_H 1
#define HAVE_STRING_H 1
#define HAVE_INTTYPES_H 1
#define HAVE_STDINT_H 1
#define HAVE_STRINGS_H 1
#define HAVE_SYS_STAT_H 1
#define HAVE_SYS_TYPES_H 1
#define HAVE_UNISTD_H 1
#define STDC_HEADERS 1
#define HAVE_EMMINTRIN 1
#define HAVE_XMMINTRIN 1
#define HAVE_ERR 1
#define SPECFEM3D_RELEASE_VERSION 0
#define SPECFEM3D_GIT_REVISION "v4.0.0-1-g5275e1f0"
#define SPECFEM3D_GIT_HASH "5275e1f01a4b1397bb2efb0280091581d8527c84"
#define SPECFEM3D_GIT_DATE "2023-03-14 17:36:22 +0100"
#define SPECFEM3D_GIT_BRANCH "master"
#define SPECFEM3D_VERSION "4.0.0"

configure: exit 0
